--------------------------------------------------------------------------
[[30598,1],0]: A high-performance Open MPI point-to-point messaging module
was unable to find any relevant network interfaces:

Module: OpenFabrics (openib)
  Host: arc

Another transport will be used instead, although this may result in
lower performance.
--------------------------------------------------------------------------
/*---------------------------------------------------------------------------*\
| =========                 |                                                 |
| \\      /  F ield         | OpenFOAM: The Open Source CFD Toolbox           |
|  \\    /   O peration     | Version:  4.1                                   |
|   \\  /    A nd           | Web:      www.OpenFOAM.org                      |
|    \\/     M anipulation  |                                                 |
\*---------------------------------------------------------------------------*/
Build  : 4.1
Exec   : snappyHexMesh -parallel -overwrite
Date   : Jan 29 2017
Time   : 22:10:17
Host   : "arc"
PID    : 26975
Case   : /home/relay/OpenFOAM/relay-4.1/run/motorBike
nProcs : 6
Slaves : 
5
(
"arc.26976"
"arc.26977"
"arc.26978"
"arc.26979"
"arc.26980"
)

Pstream initialized with:
    floatTransfer      : 0
    nProcsSimpleSum    : 0
    commsType          : nonBlocking
    polling iterations : 0
sigFpe : Enabling floating point exception trapping (FOAM_SIGFPE).
fileModificationChecking : Monitoring run-time modified files using timeStampMaster
allowSystemOperations : Allowing user-supplied system call operations

// * * * * * * * * * * * * * * * * * * * * * * * * * * * * * * * * * * * * * //
Create time

Create mesh for time = 0

Read mesh in = 0.01 s

Overall mesh bounding box  : (-5 -4 0) (15 4 8)
Relative tolerance         : 1e-06
Absolute matching distance : 2.29783e-05

Reading refinement surfaces.
Read refinement surfaces in = 3.04 s

Reading refinement shells.
Refinement level 4 for all cells inside refinementBox
Read refinement shells in = 0 s

Setting refinement level of surface to be consistent with shells.
[arc:26974] 5 more processes have sent help message help-mpi-btl-base.txt / btl:no-nics
[arc:26974] Set MCA parameter "orte_base_help_aggregate" to 0 to see all help / error messages
Checked shell refinement in = 2.04 s

Reading features.
Read edgeMesh motorBike.eMesh
    points      : 20665
    edges       : 20867
    boundingBox : (-0.241214 -0.337971 -4.232e-05) (1.75115 0.329368 1.21979)

Refinement level according to distance to "motorBike.eMesh" (20665 points, 20867 edges).
    level 6 for all cells within 0 metre.
Read features in = 0.06 s


Determining initial surface intersections
-----------------------------------------

Edge intersection testing:
    Number of edges             : 4224
    Number of edges to retest   : 4224
    Number of intersected edges : 2
Calculated surface intersections in = 0.01 s

Initial mesh : cells:1280  faces:4224  points:1701
Cells per refinement level:
    0	1280

Adding patches for surface regions
----------------------------------

Patch Type                Region                        
----- ----                ------                        
motorBike:

5     wall                motorBike_frt-fairing:001%1   
6     wall                motorBike_windshield:002%2    
7     wall                motorBike_rr-wh-rim:005%5     
8     wall                motorBike_rr-wh-rim:010%10    
9     wall                motorBike_fr-wh-rim:011%11    
10    wall                motorBike_fr-wh-brake-disk:012%12
11    wall                motorBike_frame:016-shadow%13 
12    wall                motorBike_rear-susp:014%14    
13    wall                motorBike_rear-susp:014-shadow%15
14    wall                motorBike_frame:016%16        
15    wall                motorBike_rr-wh-rim:005-shadow%17
16    wall                motorBike_rr-wh-chain-hub:022%22
17    wall                motorBike_rearseat%24         
18    wall                motorBike_frt-fairing%25      
19    wall                motorBike_windshield%26       
20    wall                motorBike_headlights%27       
21    wall                motorBike_driversseat%28      
22    wall                motorBike_rear-body%29        
23    wall                motorBike_fuel-tank%30        
24    wall                motorBike_exhaust%31          
25    wall                motorBike_rr-wh-rim%32        
26    wall                motorBike_fr-mud-guard%33     
27    wall                motorBike_fr-wh-rim%34        
28    wall                motorBike_fr-wh-brake-disk%35 
29    wall                motorBike_fr-brake-caliper%36 
30    wall                motorBike_fr-wh-tyre%37       
31    wall                motorBike_hbars%38            
32    wall                motorBike_fr-forks%39         
33    wall                motorBike_chain%40            
34    wall                motorBike_rr-wh-tyre%41       
35    wall                motorBike_square-dial%42      
36    wall                motorBike_round-dial%43       
37    wall                motorBike_dial-holder%44      
38    wall                motorBike_rear-susp%45        
39    wall                motorBike_rear-brake-lights%46
40    wall                motorBike_rear-light-bracket%47
41    wall                motorBike_frame%48            
42    wall                motorBike_rear-mud-guard%49   
43    wall                motorBike_rear-susp-spring-damp%50
44    wall                motorBike_fairing-inner-plate%51
45    wall                motorBike_clutch-housing%52   
46    wall                motorBike_radiator%53         
47    wall                motorBike_water-pipe%54       
48    wall                motorBike_water-pump%55       
49    wall                motorBike_engine%56           
50    wall                motorBike_rear-shock-link%57  
51    wall                motorBike_rear-brake-fluid-pot-bracket%58
52    wall                motorBike_rear-brake-fluid-pot%59
53    wall                motorBike_footpeg%60          
54    wall                motorBike_rr-wh-chain-hub%61  
55    wall                motorBike_rear-brake-caliper%62
56    wall                motorBike_rider-helmet%65     
57    wall                motorBike_rider-visor%66      
58    wall                motorBike_rider-boots%67      
59    wall                motorBike_rider-gloves%68     
60    wall                motorBike_rider-body%69       
61    wall                motorBike_frame:0%70          
62    wall                motorBike_frt-fairing:001-shadow%74
63    wall                motorBike_windshield-shadow%75
64    wall                motorBike_fr-mud-guard-shadow%81
65    wall                motorBike_fr-wh-brake-disk-shadow%83
66    wall                motorBike_rear-mud-guard-shadow%84
67    wall                motorBike_rear-susp-spring-damp-shadow%85
68    wall                motorBike_radiator-shadow%86  
69    wall                motorBike_rear-shock-link-shadow%87
70    wall                motorBike_rear-brake-fluid-pot-bracket-shadow%88
71    wall                motorBike_rr-wh-chain-hub-shadow%89

Added patches in = 0.07 s

Selecting decompositionMethod hierarchical
Layer thickness specified as final layer and expansion ratio.

Refinement phase
----------------

Found point (3.0001 3.0001 0.43) in cell 22 on processor 4

Feature refinement iteration 0
------------------------------

Marked for refinement due to explicit features             : 10 cells.
Determined cells to refine in = 0.05 s
Selected for feature refinement : 10 cells (out of 1280)
Edge intersection testing:
    Number of edges             : 4479
    Number of edges to retest   : 388
    Number of intersected edges : 26
Refined mesh in = 0 s
After refinement feature refinement iteration 0 : cells:1350  faces:4479  points:1823
Cells per refinement level:
    0	1270
    1	80
Balanced mesh in = 0.03 s
After balancing feature refinement iteration 0 : cells:1350  faces:4479  points:1823
Cells per refinement level:
    0	1270
    1	80

Feature refinement iteration 1
------------------------------

Marked for refinement due to explicit features             : 26 cells.
Determined cells to refine in = 0.04 s
Selected for feature refinement : 32 cells (out of 1350)
Edge intersection testing:
    Number of edges             : 5259
    Number of edges to retest   : 1149
    Number of intersected edges : 127
Refined mesh in = 0.01 s
After refinement feature refinement iteration 1 : cells:1574  faces:5259  points:2167
Cells per refinement level:
    0	1264
    1	102
    2	208
Balanced mesh in = 0.03 s
After balancing feature refinement iteration 1 : cells:1574  faces:5259  points:2167
Cells per refinement level:
    0	1264
    1	102
    2	208

Feature refinement iteration 2
------------------------------

Marked for refinement due to explicit features             : 100 cells.
Determined cells to refine in = 0.04 s
Selected for feature refinement : 120 cells (out of 1574)
Edge intersection testing:
    Number of edges             : 8103
    Number of edges to retest   : 3798
    Number of intersected edges : 726
Refined mesh in = 0.02 s
After refinement feature refinement iteration 2 : cells:2414  faces:8103  points:3354
Cells per refinement level:
    0	1260
    1	118
    2	236
    3	800
Balanced mesh in = 0.04 s
After balancing feature refinement iteration 2 : cells:2414  faces:8103  points:3354
Cells per refinement level:
    0	1260
    1	118
    2	236
    3	800

Feature refinement iteration 3
------------------------------

Marked for refinement due to explicit features             : 447 cells.
Determined cells to refine in = 0.06 s
Selected for feature refinement : 539 cells (out of 2414)
Edge intersection testing:
    Number of edges             : 20616
    Number of edges to retest   : 16350
    Number of intersected edges : 3115
Refined mesh in = 0.06 s
After refinement feature refinement iteration 3 : cells:6187  faces:20616  points:8337
Cells per refinement level:
    0	1252
    1	159
    2	359
    3	841
    4	3576
Balanced mesh in = 0.07 s
After balancing feature refinement iteration 3 : cells:6187  faces:20616  points:8337
Cells per refinement level:
    0	1252
    1	159
    2	359
    3	841
    4	3576

Feature refinement iteration 4
------------------------------

Marked for refinement due to explicit features             : 1726 cells.
Determined cells to refine in = 0.09 s
Selected for feature refinement : 2001 cells (out of 6187)
Edge intersection testing:
    Number of edges             : 68094
    Number of edges to retest   : 62382
    Number of intersected edges : 11403
Refined mesh in = 0.1 s
After refinement feature refinement iteration 4 : cells:20194  faces:68094  points:27936
Cells per refinement level:
    0	1250
    1	168
    2	380
    3	890
    4	3698
    5	13808
Balanced mesh in = 0.15 s
After balancing feature refinement iteration 4 : cells:20194  faces:68094  points:27936
Cells per refinement level:
    0	1250
    1	168
    2	380
    3	890
    4	3698
    5	13808

Feature refinement iteration 5
------------------------------

Marked for refinement due to explicit features             : 5267 cells.
Determined cells to refine in = 0.17 s
Selected for feature refinement : 6710 cells (out of 20194)
Edge intersection testing:
    Number of edges             : 230619
    Number of edges to retest   : 222164
    Number of intersected edges : 36494
Refined mesh in = 0.24 s
After refinement feature refinement iteration 5 : cells:67164  faces:230619  points:97962
Cells per refinement level:
    0	1249
    1	175
    2	371
    3	888
    4	3516
    5	18829
    6	42136
Skipping balancing since max unbalance 0.0477041 is less than allowable 0.1

Feature refinement iteration 6
------------------------------

Marked for refinement due to explicit features             : 0 cells.
Determined cells to refine in = 0.38 s
Selected for feature refinement : 0 cells (out of 67164)
Stopping refining since too few cells selected.


Surface refinement iteration 0
------------------------------

Marked for refinement due to surface intersection          : 708 cells.
Marked for refinement due to curvature/regions             : 5570 cells.
Determined cells to refine in = 0.08 s
Selected for refinement : 6693 cells (out of 67164)
Edge intersection testing:
    Number of edges             : 377958
    Number of edges to retest   : 295074
    Number of intersected edges : 50032
Refined mesh in = 0.4 s
After refinement surface refinement iteration 0 : cells:114015  faces:377958  points:150262
Cells per refinement level:
    0	1246
    1	196
    2	366
    3	1015
    4	3373
    5	21123
    6	86696
Balanced mesh in = 0.78 s
After balancing surface refinement iteration 0 : cells:114015  faces:377958  points:150262
Cells per refinement level:
    0	1246
    1	196
    2	366
    3	1015
    4	3373
    5	21123
    6	86696

Surface refinement iteration 1
------------------------------

Marked for refinement due to surface intersection          : 99 cells.
Marked for refinement due to curvature/regions             : 1342 cells.
Determined cells to refine in = 0.13 s
Selected for refinement : 1546 cells (out of 114015)
Edge intersection testing:
    Number of edges             : 412875
    Number of edges to retest   : 81224
    Number of intersected edges : 53698
Refined mesh in = 0.32 s
After refinement surface refinement iteration 1 : cells:124837  faces:412875  points:163350
Cells per refinement level:
    0	1246
    1	196
    2	362
    3	1024
    4	3380
    5	21197
    6	97432
Skipping balancing since max unbalance 0.0450351 is less than allowable 0.1

Surface refinement iteration 2
------------------------------

Marked for refinement due to surface intersection          : 0 cells.
Marked for refinement due to curvature/regions             : 105 cells.
Determined cells to refine in = 0.12 s
Selected for refinement : 123 cells (out of 124837)
Edge intersection testing:
    Number of edges             : 415608
    Number of edges to retest   : 8749
    Number of intersected edges : 53893
Refined mesh in = 0.29 s
After refinement surface refinement iteration 2 : cells:125698  faces:415608  points:164328
Cells per refinement level:
    0	1246
    1	196
    2	362
    3	1022
    4	3380
    5	21220
    6	98272
Skipping balancing since max unbalance 0.0566137 is less than allowable 0.1

Surface refinement iteration 3
------------------------------

Marked for refinement due to surface intersection          : 0 cells.
Marked for refinement due to curvature/regions             : 4 cells.
Determined cells to refine in = 0.13 s
Selected for refinement : 4 cells (out of 125698)
Edge intersection testing:
    Number of edges             : 415689
    Number of edges to retest   : 345
    Number of intersected edges : 53899
Refined mesh in = 0.27 s
After refinement surface refinement iteration 3 : cells:125726  faces:415689  points:164353
Cells per refinement level:
    0	1246
    1	196
    2	362
    3	1022
    4	3380
    5	21216
    6	98304
Skipping balancing since max unbalance 0.0576978 is less than allowable 0.1

Surface refinement iteration 4
------------------------------

Marked for refinement due to surface intersection          : 0 cells.
Marked for refinement due to curvature/regions             : 0 cells.
Determined cells to refine in = 0.12 s
Selected for refinement : 0 cells (out of 125726)
Stopping refining since too few cells selected.


Removing mesh beyond surface intersections
------------------------------------------

Found point (3.0001 3.0001 0.43) in global region 0 out of 46 regions.
Keeping all cells in region 0 containing point (3.0001 3.0001 0.43)
Selected for keeping : 118675 cells.
Edge intersection testing:
    Number of edges             : 401205
    Number of edges to retest   : 18608
    Number of intersected edges : 53899

Shell refinement iteration 0
----------------------------

Marked for refinement due to distance to explicit features : 0 cells.
Marked for refinement due to refinement shells             : 1324 cells.
Determined cells to refine in = 0.73 s
Selected for internal refinement : 15344 cells (out of 118675)
Edge intersection testing:
    Number of edges             : 719796
    Number of edges to retest   : 620332
    Number of intersected edges : 56877
Refined mesh in = 0.71 s
After refinement shell refinement iteration 0 : cells:226083  faces:719796  points:265431
Cells per refinement level:
    0	1162
    1	736
    2	1111
    3	2456
    4	9956
    5	18436
    6	192226
Balanced mesh in = 1.45 s
After balancing shell refinement iteration 0 : cells:226083  faces:719796  points:265450
Cells per refinement level:
    0	1162
    1	736
    2	1111
    3	2456
    4	9956
    5	18436
    6	192226

Shell refinement iteration 1
----------------------------

Marked for refinement due to distance to explicit features : 0 cells.
Marked for refinement due to refinement shells             : 2412 cells.
Determined cells to refine in = 0.12 s
Selected for internal refinement : 4841 cells (out of 226083)
Edge intersection testing:
    Number of edges             : 822840
    Number of edges to retest   : 235247
    Number of intersected edges : 57369
Refined mesh in = 0.59 s
After refinement shell refinement iteration 1 : cells:259970  faces:822840  points:300693
Cells per refinement level:
    0	1060
    1	1304
    2	2604
    3	4448
    4	24736
    5	22744
    6	203074
Skipping balancing since max unbalance 0.0689854 is less than allowable 0.1

Shell refinement iteration 2
----------------------------

Marked for refinement due to distance to explicit features : 0 cells.
Marked for refinement due to refinement shells             : 3888 cells.
Determined cells to refine in = 0.13 s
Selected for internal refinement : 4593 cells (out of 259970)
Edge intersection testing:
    Number of edges             : 921675
    Number of edges to retest   : 139806
    Number of intersected edges : 57369
Refined mesh in = 0.66 s
After refinement shell refinement iteration 2 : cells:292121  faces:921675  points:335260
Cells per refinement level:
    0	996
    1	1560
    2	3436
    3	11232
    4	48180
    5	23603
    6	203114
Balanced mesh in = 1.75 s
After balancing shell refinement iteration 2 : cells:292121  faces:921675  points:335260
Cells per refinement level:
    0	996
    1	1560
    2	3436
    3	11232
    4	48180
    5	23603
    6	203114

Shell refinement iteration 3
----------------------------

Marked for refinement due to distance to explicit features : 0 cells.
Marked for refinement due to refinement shells             : 7912 cells.
Determined cells to refine in = 0.15 s
Selected for internal refinement : 8473 cells (out of 292121)
Edge intersection testing:
    Number of edges             : 1103625
    Number of edges to retest   : 224230
    Number of intersected edges : 57369
Refined mesh in = 0.88 s
After refinement shell refinement iteration 3 : cells:351432  faces:1103625  points:398630
Cells per refinement level:
    0	974
    1	1520
    2	4482
    3	9136
    4	108596
    5	23602
    6	203122
Balanced mesh in = 2.14 s
After balancing shell refinement iteration 3 : cells:351432  faces:1103625  points:398651
Cells per refinement level:
    0	974
    1	1520
    2	4482
    3	9136
    4	108596
    5	23602
    6	203122

Shell refinement iteration 4
----------------------------

Marked for refinement due to distance to explicit features : 0 cells.
Marked for refinement due to refinement shells             : 2880 cells.
Determined cells to refine in = 0.18 s
Selected for internal refinement : 3406 cells (out of 351432)
Edge intersection testing:
    Number of edges             : 1175766
    Number of edges to retest   : 114281
    Number of intersected edges : 57369
Refined mesh in = 0.78 s
After refinement shell refinement iteration 4 : cells:375274  faces:1175766  points:423113
Cells per refinement level:
    0	936
    1	1740
    2	4752
    3	9472
    4	131635
    5	23609
    6	203130
Balanced mesh in = 1.63 s
After balancing shell refinement iteration 4 : cells:375274  faces:1175766  points:423117
Cells per refinement level:
    0	936
    1	1740
    2	4752
    3	9472
    4	131635
    5	23609
    6	203130

Shell refinement iteration 5
----------------------------

Marked for refinement due to distance to explicit features : 0 cells.
Marked for refinement due to refinement shells             : 0 cells.
Determined cells to refine in = 0.16 s
Selected for internal refinement : 33 cells (out of 375274)
Edge intersection testing:
    Number of edges             : 1176465
    Number of edges to retest   : 2397
    Number of intersected edges : 57369
Refined mesh in = 0.67 s
After refinement shell refinement iteration 5 : cells:375505  faces:1176465  points:423354
Cells per refinement level:
    0	934
    1	1726
    2	4992
    3	9472
    4	131634
    5	23617
    6	203130
Skipping balancing since max unbalance 0.00199732 is less than allowable 0.1

Shell refinement iteration 6
----------------------------

Marked for refinement due to distance to explicit features : 0 cells.
Marked for refinement due to refinement shells             : 0 cells.
Determined cells to refine in = 0.17 s
Selected for internal refinement : 6 cells (out of 375505)
Stopping refining since too few cells selected.


Dangling coarse cells refinement iteration 0
--------------------------------------------

Determined cells to refine in = 0.01 s
Selected for refinement : 103 cells (out of 375505)
Edge intersection testing:
    Number of edges             : 1177992
    Number of edges to retest   : 12462
    Number of intersected edges : 57371
Refined mesh in = 0.69 s
After refinement coarse cell refinement iteration 0 : cells:376226  faces:1177992  points:423554
Cells per refinement level:
    0	934
    1	1726
    2	4992
    3	9472
    4	131633
    5	23523
    6	203946
Skipping balancing since max unbalance 0.000685762 is less than allowable 0.1

Dangling coarse cells refinement iteration 1
--------------------------------------------

Determined cells to refine in = 0.09 s
Selected for refinement : 15 cells (out of 376226)
Edge intersection testing:
    Number of edges             : 1178211
    Number of edges to retest   : 1861
    Number of intersected edges : 57371
Refined mesh in = 0.72 s
After refinement coarse cell refinement iteration 1 : cells:376331  faces:1178211  points:423582
Cells per refinement level:
    0	934
    1	1726
    2	4992
    3	9472
    4	131633
    5	23508
    6	204066
Skipping balancing since max unbalance 0.000845012 is less than allowable 0.1

Dangling coarse cells refinement iteration 2
--------------------------------------------

Determined cells to refine in = 0.09 s
Selected for refinement : 2 cells (out of 376331)
Stopping refining since too few cells selected.


Dangling coarse cells refinement iteration 0
--------------------------------------------

Determined cells to refine in = 0 s
Selected for refinement : 19 cells (out of 376331)
Edge intersection testing:
    Number of edges             : 1178439
    Number of edges to retest   : 2486
    Number of intersected edges : 57371
Refined mesh in = 0.67 s
After refinement coarse cell refinement iteration 0 : cells:376464  faces:1178439  points:423601
Cells per refinement level:
    0	934
    1	1726
    2	4992
    3	9472
    4	131633
    5	23489
    6	204218
Skipping balancing since max unbalance 0.00109971 is less than allowable 0.1

Dangling coarse cells refinement iteration 1
--------------------------------------------

Determined cells to refine in = 0.09 s
Selected for refinement : 0 cells (out of 376464)
Stopping refining since too few cells selected.


Splitting mesh at surface intersections
---------------------------------------

Introducing baffles for 57371 faces that are intersected by the surface.

Edge intersection testing:
    Number of edges             : 1235755
    Number of edges to retest   : 309562
    Number of intersected edges : 114578
Created baffles in = 0.7 s


After introducing baffles : cells:376464  faces:1235755  points:423743
Cells per refinement level:
    0	934
    1	1726
    2	4992
    3	9472
    4	131633
    5	23489
    6	204218

Introducing baffles to block off problem cells
----------------------------------------------

markFacesOnProblemCells : marked 43761 additional internal faces to be converted into baffles.
Analyzed problem cells in = 0.51 s


Introducing baffles to delete problem cells.

Edge intersection testing:
    Number of edges             : 1279516
    Number of edges to retest   : 173167
    Number of intersected edges : 114584
Created baffles in = 0.63 s


After introducing baffles : cells:376464  faces:1279516  points:424379
Cells per refinement level:
    0	934
    1	1726
    2	4992
    3	9472
    4	131633
    5	23489
    6	204218

Remove unreachable sections of mesh
-----------------------------------

Keeping all cells in region 0 containing point (3.0001 3.0001 0.43)
Selected for keeping : 324586 cells.
Edge intersection testing:
    Number of edges             : 1039837
    Number of edges to retest   : 0
    Number of intersected edges : 59729
Split mesh in = 1.89 s


After subsetting : cells:324586  faces:1039837  points:381396
Cells per refinement level:
    0	934
    1	1726
    2	4992
    3	9472
    4	131633
    5	22977
    6	152852

Handling cells with snap problems
---------------------------------

Introducing baffles for 59729 faces that are intersected by the surface.

Edge intersection testing:
    Number of edges             : 1039837
    Number of edges to retest   : 181124
    Number of intersected edges : 59729
Created baffles in = 0.59 s


After introducing baffles : cells:324586  faces:1039837  points:381396
Cells per refinement level:
    0	934
    1	1726
    2	4992
    3	9472
    4	131633
    5	22977
    6	152852

Introducing baffles to block off problem cells
----------------------------------------------

markFacesOnProblemCells : marked 81 additional internal faces to be converted into baffles.
Analyzed problem cells in = 0.41 s


Introducing baffles to delete problem cells.

Edge intersection testing:
    Number of edges             : 1039918
    Number of edges to retest   : 446
    Number of intersected edges : 59729
Created baffles in = 0.4 s


After introducing baffles : cells:324586  faces:1039918  points:381396
Cells per refinement level:
    0	934
    1	1726
    2	4992
    3	9472
    4	131633
    5	22977
    6	152852

Remove unreachable sections of mesh
-----------------------------------

Keeping all cells in region 0 containing point (3.0001 3.0001 0.43)
Selected for keeping : 324546 cells.
Edge intersection testing:
    Number of edges             : 1039678
    Number of edges to retest   : 0
    Number of intersected edges : 59664
Split mesh in = 1.67 s


After subsetting : cells:324546  faces:1039678  points:381330
Cells per refinement level:
    0	934
    1	1726
    2	4992
    3	9472
    4	131633
    5	22977
    6	152812

Merge free-standing baffles
---------------------------

freeStandingBaffles : detected 361 free-standing baffles out of 7853

freeStandingBaffles : detected 50 planar (within 30 degrees) free-standing baffles out of 361

Detected free-standing baffles : 50
Edge intersection testing:
    Number of edges             : 1039628
    Number of edges to retest   : 50
    Number of intersected edges : 59614

Introducing baffles to block off problem cells
----------------------------------------------

markFacesOnProblemCells : marked 66 additional internal faces to be converted into baffles.
Analyzed problem cells in = 1.04 s


Introducing baffles to delete problem cells.

Edge intersection testing:
    Number of edges             : 1039694
    Number of edges to retest   : 354
    Number of intersected edges : 59614
Created baffles in = 0.39 s


After introducing baffles : cells:324546  faces:1039694  points:381330
Cells per refinement level:
    0	934
    1	1726
    2	4992
    3	9472
    4	131633
    5	22977
    6	152812
Merged free-standing baffles in = 0.07 s


dupNonManifoldPoints : Found : 8078 non-manifold points (out of 399778)
Edge intersection testing:
    Number of edges             : 1039694
    Number of edges to retest   : 0
    Number of intersected edges : 59614
Detected unsplittable baffles : 123
Edge intersection testing:
    Number of edges             : 1039571
    Number of edges to retest   : 123
    Number of intersected edges : 59491
Keeping all cells in region 0 containing point (3.0001 3.0001 0.43)
Selected for keeping : 324513 cells.
Edge intersection testing:
    Number of edges             : 1039373
    Number of edges to retest   : 0
    Number of intersected edges : 59443
Merged free-standing baffles in = 2.54 s.

Merge refined boundary faces
----------------------------

Merging 45 sets of faces.

Edge intersection testing:
    Number of edges             : 1039306
    Number of edges to retest   : 428
    Number of intersected edges : 59374

Undo iteration 0
----------------
Checking faces in error :
    non-orthogonality > 65  degrees                        : 0
    faces with face pyramid volume < 1e-13                 : 0
    faces with face-decomposition tet quality < 1e-15      : 0
    faces with concavity > 80  degrees                     : 0
    faces with skewness > 4   (internal) or 20  (boundary) : 0
    faces with interpolation weights (0..1)  < 0.02        : 0
    faces with volume ratio of neighbour cells < 0.01      : 0
    faces with face twist < 0.02                           : 0
    faces on cells with determinant < 0.001                : 0

Merging all points on surface that
- are used by only two boundary faces and
- make an angle with a cosine of more than 0.707107.

Removing 49 straight edge points ...

Edge intersection testing:
    Number of edges             : 1039306
    Number of edges to retest   : 481
    Number of intersected edges : 59374

Undo iteration 0
----------------
Checking faces in error :
    non-orthogonality > 65  degrees                        : 0
    faces with face pyramid volume < 1e-13                 : 0
    faces with face-decomposition tet quality < 1e-15      : 0
    faces with concavity > 80  degrees                     : 0
    faces with skewness > 4   (internal) or 20  (boundary) : 0
    faces with interpolation weights (0..1)  < 0.02        : 0
    faces with volume ratio of neighbour cells < 0.01      : 0
    faces with face twist < 0.02                           : 0
    faces on cells with determinant < 0.001                : 0

Doing final balancing
---------------------

Found 0 zoned faces to keep together.
Found 0 separated coupled faces to keep together.
Refined mesh : cells:324513  faces:1039306  points:389060
Cells per refinement level:
    0	934
    1	1726
    2	4992
    3	9472
    4	131633
    5	22977
    6	152779
Writing mesh to time constant
Wrote mesh in = 4.17 s.
Mesh refined in = 34.49 s.

Morphing phase
--------------


Snapping to features in 10 iterations ...
Constructing mesh displacer ...
Using mesh parameters 
{
    maxNonOrtho     65;
    maxBoundarySkewness 20;
    maxInternalSkewness 4;
    maxConcave      80;
    minVol          1e-13;
    minTetQuality   1e-15;
    minArea         -1;
    minTwist        0.02;
    minDeterminant  0.001;
    minFaceWeight   0.02;
    minVolRatio     0.01;
    minTriangleTwist -1;
    nSmoothScale    4;
    errorReduction  0.75;
}


Checking initial mesh ...
Checking faces in error :
    non-orthogonality > 65  degrees                        : 0
    faces with face pyramid volume < 1e-13                 : 0
    faces with face-decomposition tet quality < 1e-15      : 0
    faces with concavity > 80  degrees                     : 0
    faces with skewness > 4   (internal) or 20  (boundary) : 0
    faces with interpolation weights (0..1)  < 0.02        : 0
    faces with volume ratio of neighbour cells < 0.01      : 0
    faces with face twist < 0.02                           : 0
    faces on cells with determinant < 0.001                : 0
Detected 0 illegal faces (concave, zero area or negative cell pyramid volume)
Checked initial mesh in = 0.66 s


Smoothing patch points ...
Smoothing iteration 0
Found 16013 non-manifold point(s).

Scaling iteration 0
Moving mesh using displacement scaling : min:1  max:1
Checking faces in error :
    non-orthogonality > 65  degrees                        : 0
    faces with face pyramid volume < 1e-13                 : 0
    faces with face-decomposition tet quality < 1e-15      : 1
    faces with concavity > 80  degrees                     : 0
    faces with skewness > 4   (internal) or 20  (boundary) : 0
    faces with interpolation weights (0..1)  < 0.02        : 0
    faces with volume ratio of neighbour cells < 0.01      : 0
    faces with face twist < 0.02                           : 0
    faces on cells with determinant < 0.001                : 0

Scaling iteration 1
Moving mesh using displacement scaling : min:0.75  max:1
Checking faces in error :
    non-orthogonality > 65  degrees                        : 0
    faces with face pyramid volume < 1e-13                 : 0
    faces with face-decomposition tet quality < 1e-15      : 0
    faces with concavity > 80  degrees                     : 0
    faces with skewness > 4   (internal) or 20  (boundary) : 0
    faces with interpolation weights (0..1)  < 0.02        : 0
    faces with volume ratio of neighbour cells < 0.01      : 0
    faces with face twist < 0.02                           : 0
    faces on cells with determinant < 0.001                : 0
Successfully moved mesh

Smoothing iteration 1
Found 0 non-manifold point(s).

Scaling iteration 0
Moving mesh using displacement scaling : min:1  max:1
Checking faces in error :
    non-orthogonality > 65  degrees                        : 0
    faces with face pyramid volume < 1e-13                 : 0
    faces with face-decomposition tet quality < 1e-15      : 0
    faces with concavity > 80  degrees                     : 0
    faces with skewness > 4   (internal) or 20  (boundary) : 0
    faces with interpolation weights (0..1)  < 0.02        : 0
    faces with volume ratio of neighbour cells < 0.01      : 0
    faces with face twist < 0.02                           : 1
    faces on cells with determinant < 0.001                : 0

Scaling iteration 1
Moving mesh using displacement scaling : min:0.75  max:1
Checking faces in error :
    non-orthogonality > 65  degrees                        : 0
    faces with face pyramid volume < 1e-13                 : 0
    faces with face-decomposition tet quality < 1e-15      : 0
    faces with concavity > 80  degrees                     : 0
    faces with skewness > 4   (internal) or 20  (boundary) : 0
    faces with interpolation weights (0..1)  < 0.02        : 0
    faces with volume ratio of neighbour cells < 0.01      : 0
    faces with face twist < 0.02                           : 0
    faces on cells with determinant < 0.001                : 0
Successfully moved mesh

Smoothing iteration 2
Found 0 non-manifold point(s).

Scaling iteration 0
Moving mesh using displacement scaling : min:1  max:1
Checking faces in error :
    non-orthogonality > 65  degrees                        : 0
    faces with face pyramid volume < 1e-13                 : 0
    faces with face-decomposition tet quality < 1e-15      : 0
    faces with concavity > 80  degrees                     : 0
    faces with skewness > 4   (internal) or 20  (boundary) : 0
    faces with interpolation weights (0..1)  < 0.02        : 0
    faces with volume ratio of neighbour cells < 0.01      : 0
    faces with face twist < 0.02                           : 0
    faces on cells with determinant < 0.001                : 0
Successfully moved mesh

Patch points smoothed in = 2.5 s



Morph iteration 0
-----------------
Calculating patchDisplacement as distance to nearest surface point ...
Wanted displacement : average:0.00361244 min:5.68792e-09 max:0.0192977
Calculated surface displacement in = 0.11 s


Detecting near surfaces ...
Overriding nearest with intersection of close gaps at 206 out of 63839 points.
Overriding displacement on features :
   implicit features    : false
   explicit features    : true
   multi-patch features : false

Detected 1542 baffle edges out of 125677 edges.
Initially selected 21792 points out of 63839 for reverse attraction.
Selected 42420 points out of 63839 for reverse attraction.
Stringing feature edges : changed 1935 points
Stringing feature edges : changed 167 points
Stringing feature edges : changed 41 points
Stringing feature edges : changed 13 points
Stringing feature edges : changed 8 points
Stringing feature edges : changed 4 points
Stringing feature edges : changed 3 points
Stringing feature edges : changed 1 points
Stringing feature edges : changed 4 points
Stringing feature edges : changed 0 points
Attraction:
     linear   : max:(-0.0172031 0.00873793 0.000324043) avg:(-1.23801e-05 -3.44909e-05 7.78836e-06)
     feature  : max:(0.060327 -0.00692138 -0.00691761) avg:(2.19313e-05 6.37806e-06 -1.70554e-05)
Feature analysis : total master points:61711 attraction to :
    feature point   : 1114
    feature edge    : 10910
    nearest surface : 0
    rest            : 49687

--> FOAM Warning : Displacement (0.000267463 -0.000119107 0.000128544) at mesh point 17575 coord (0.38334 -0.269169 0.624615) points through the surrounding patch faces
Smoothing displacement ...
Iteration 0
Iteration 10
Iteration 20
Displacement smoothed in = 1.09 s


Moving mesh ...

Iteration 0
Moving mesh using displacement scaling : min:1  max:1
Checking faces in error :
    non-orthogonality > 65  degrees                        : 0
    faces with face pyramid volume < 1e-13                 : 0
    faces with face-decomposition tet quality < 1e-15      : 0
    faces with concavity > 80  degrees                     : 0
    faces with skewness > 4   (internal) or 20  (boundary) : 0
    faces with interpolation weights (0..1)  < 0.02        : 0
    faces with volume ratio of neighbour cells < 0.01      : 0
    faces with face twist < 0.02                           : 0
    faces on cells with determinant < 0.001                : 0
Successfully moved mesh
Moved mesh in = 0.65 s



Morph iteration 1
-----------------
Calculating patchDisplacement as distance to nearest surface point ...
Wanted displacement : average:0.0033737 min:4.65028e-08 max:0.0192301
Calculated surface displacement in = 0.11 s


Detecting near surfaces ...
Overriding nearest with intersection of close gaps at 198 out of 63839 points.
Overriding displacement on features :
   implicit features    : false
   explicit features    : true
   multi-patch features : false

Detected 1567 baffle edges out of 125677 edges.
Initially selected 21865 points out of 63839 for reverse attraction.
Selected 42466 points out of 63839 for reverse attraction.
Stringing feature edges : changed 1900 points
Stringing feature edges : changed 168 points
Stringing feature edges : changed 42 points
Stringing feature edges : changed 13 points
Stringing feature edges : changed 7 points
Stringing feature edges : changed 3 points
Stringing feature edges : changed 2 points
Stringing feature edges : changed 1 points
Stringing feature edges : changed 1 points
Stringing feature edges : changed 4 points
Stringing feature edges : changed 0 points
Attraction:
     linear   : max:(-0.0171428 0.00870733 0.000322908) avg:(-1.5101e-05 -3.21581e-05 5.88971e-06)
     feature  : max:(0.0573933 0.00267866 -0.0177081) avg:(2.46639e-05 1.21928e-05 -8.29091e-06)
Feature analysis : total master points:61711 attraction to :
    feature point   : 1123
    feature edge    : 10939
    nearest surface : 0
    rest            : 49649

--> FOAM Warning : Displacement (0.000491687 -0.000188418 0.000237036) at mesh point 17575 coord (0.383607 -0.269288 0.624743) points through the surrounding patch faces
Smoothing displacement ...
Iteration 0
Iteration 10
Iteration 20
Displacement smoothed in = 1.07 s


Moving mesh ...

Iteration 0
Moving mesh using displacement scaling : min:1  max:1
Checking faces in error :
    non-orthogonality > 65  degrees                        : 0
    faces with face pyramid volume < 1e-13                 : 0
    faces with face-decomposition tet quality < 1e-15      : 0
    faces with concavity > 80  degrees                     : 0
    faces with skewness > 4   (internal) or 20  (boundary) : 0
    faces with interpolation weights (0..1)  < 0.02        : 0
    faces with volume ratio of neighbour cells < 0.01      : 0
    faces with face twist < 0.02                           : 0
    faces on cells with determinant < 0.001                : 0
Successfully moved mesh
Moved mesh in = 0.65 s



Morph iteration 2
-----------------
Calculating patchDisplacement as distance to nearest surface point ...
Wanted displacement : average:0.00292389 min:4.74166e-08 max:0.0189766
Calculated surface displacement in = 0.1 s


Detecting near surfaces ...
Overriding nearest with intersection of close gaps at 218 out of 63839 points.
Overriding displacement on features :
   implicit features    : false
   explicit features    : true
   multi-patch features : false

Detected 1603 baffle edges out of 125677 edges.
Initially selected 22024 points out of 63839 for reverse attraction.
Selected 42565 points out of 63839 for reverse attraction.
Stringing feature edges : changed 1830 points
Stringing feature edges : changed 150 points
Stringing feature edges : changed 41 points
Stringing feature edges : changed 10 points
Stringing feature edges : changed 10 points
Stringing feature edges : changed 8 points
Stringing feature edges : changed 1 points
Stringing feature edges : changed 0 points
Attraction:
     linear   : max:(-0.0169168 0.00859251 0.00031865) avg:(-1.9115e-05 -2.42194e-05 6.18679e-06)
     feature  : max:(0.0564279 -0.00638423 -0.000735594) avg:(2.28116e-05 1.43546e-05 -1.33345e-05)
Feature analysis : total master points:61711 attraction to :
    feature point   : 1106
    feature edge    : 11008
    nearest surface : 0
    rest            : 49597

--> FOAM Warning : Displacement (0.00060807 -0.000180386 0.000294399) at mesh point 17575 coord (0.384099 -0.269477 0.62498) points through the surrounding patch faces
Smoothing displacement ...
Iteration 0
Iteration 10
Iteration 20
Displacement smoothed in = 1.06 s


Moving mesh ...

Iteration 0
Moving mesh using displacement scaling : min:1  max:1
Checking faces in error :
    non-orthogonality > 65  degrees                        : 0
    faces with face pyramid volume < 1e-13                 : 0
    faces with face-decomposition tet quality < 1e-15      : 0
    faces with concavity > 80  degrees                     : 0
    faces with skewness > 4   (internal) or 20  (boundary) : 0
    faces with interpolation weights (0..1)  < 0.02        : 0
    faces with volume ratio of neighbour cells < 0.01      : 0
    faces with face twist < 0.02                           : 0
    faces on cells with determinant < 0.001                : 0
Successfully moved mesh
Moved mesh in = 0.64 s



Morph iteration 3
-----------------
Calculating patchDisplacement as distance to nearest surface point ...
Wanted displacement : average:0.00234803 min:8.93639e-09 max:0.0185354
Calculated surface displacement in = 0.09 s


Detecting near surfaces ...
Overriding nearest with intersection of close gaps at 268 out of 63839 points.
Overriding displacement on features :
   implicit features    : false
   explicit features    : true
   multi-patch features : false

Detected 1616 baffle edges out of 125677 edges.
Initially selected 22214 points out of 63839 for reverse attraction.
Selected 42570 points out of 63839 for reverse attraction.
Stringing feature edges : changed 1806 points
Stringing feature edges : changed 144 points
Stringing feature edges : changed 50 points
Stringing feature edges : changed 5 points
Stringing feature edges : changed 4 points
Stringing feature edges : changed 4 points
Stringing feature edges : changed 2 points
Stringing feature edges : changed 3 points
Stringing feature edges : changed 4 points
Stringing feature edges : changed 1 points
Stringing feature edges : changed 1 points
Stringing feature edges : changed 1 points
Stringing feature edges : changed 0 points
Attraction:
     linear   : max:(-2.35723e-05 -0.018534 -0.000229567) avg:(-2.26411e-05 -1.57965e-05 3.32861e-06)
     feature  : max:(0.0511807 -0.00574917 0.000735742) avg:(2.68227e-05 9.15367e-06 -1.69305e-05)
Feature analysis : total master points:61711 attraction to :
    feature point   : 1140
    feature edge    : 11074
    nearest surface : 0
    rest            : 49497

--> FOAM Warning : Displacement (0.000595323 -9.79595e-05 0.000290104) at mesh point 17575 coord (0.384707 -0.269657 0.625275) points through the surrounding patch faces
Smoothing displacement ...
Iteration 0
Iteration 10
Iteration 20
Displacement smoothed in = 1.06 s


Moving mesh ...

Iteration 0
Moving mesh using displacement scaling : min:1  max:1
Checking faces in error :
    non-orthogonality > 65  degrees                        : 0
    faces with face pyramid volume < 1e-13                 : 1
    faces with face-decomposition tet quality < 1e-15      : 15
    faces with concavity > 80  degrees                     : 0
    faces with skewness > 4   (internal) or 20  (boundary) : 0
    faces with interpolation weights (0..1)  < 0.02        : 0
    faces with volume ratio of neighbour cells < 0.01      : 0
    faces with face twist < 0.02                           : 3
    faces on cells with determinant < 0.001                : 0

Iteration 1
Moving mesh using displacement scaling : min:0.75  max:1
Checking faces in error :
    non-orthogonality > 65  degrees                        : 0
    faces with face pyramid volume < 1e-13                 : 1
    faces with face-decomposition tet quality < 1e-15      : 8
    faces with concavity > 80  degrees                     : 0
    faces with skewness > 4   (internal) or 20  (boundary) : 0
    faces with interpolation weights (0..1)  < 0.02        : 0
    faces with volume ratio of neighbour cells < 0.01      : 0
    faces with face twist < 0.02                           : 1
    faces on cells with determinant < 0.001                : 0

Iteration 2
Moving mesh using displacement scaling : min:0.5625  max:1
Checking faces in error :
    non-orthogonality > 65  degrees                        : 0
    faces with face pyramid volume < 1e-13                 : 0
    faces with face-decomposition tet quality < 1e-15      : 4
    faces with concavity > 80  degrees                     : 0
    faces with skewness > 4   (internal) or 20  (boundary) : 0
    faces with interpolation weights (0..1)  < 0.02        : 0
    faces with volume ratio of neighbour cells < 0.01      : 0
    faces with face twist < 0.02                           : 3
    faces on cells with determinant < 0.001                : 0

Iteration 3
Moving mesh using displacement scaling : min:0.421875  max:1
Checking faces in error :
    non-orthogonality > 65  degrees                        : 0
    faces with face pyramid volume < 1e-13                 : 0
    faces with face-decomposition tet quality < 1e-15      : 3
    faces with concavity > 80  degrees                     : 0
    faces with skewness > 4   (internal) or 20  (boundary) : 0
    faces with interpolation weights (0..1)  < 0.02        : 0
    faces with volume ratio of neighbour cells < 0.01      : 0
    faces with face twist < 0.02                           : 0
    faces on cells with determinant < 0.001                : 0

Iteration 4
Moving mesh using displacement scaling : min:0.316406  max:1
Checking faces in error :
    non-orthogonality > 65  degrees                        : 0
    faces with face pyramid volume < 1e-13                 : 0
    faces with face-decomposition tet quality < 1e-15      : 0
    faces with concavity > 80  degrees                     : 0
    faces with skewness > 4   (internal) or 20  (boundary) : 0
    faces with interpolation weights (0..1)  < 0.02        : 0
    faces with volume ratio of neighbour cells < 0.01      : 0
    faces with face twist < 0.02                           : 1
    faces on cells with determinant < 0.001                : 0

Iteration 5
Displacement scaling for error reduction set to 0.
Moving mesh using displacement scaling : min:0.237305  max:1
Checking faces in error :
    non-orthogonality > 65  degrees                        : 0
    faces with face pyramid volume < 1e-13                 : 0
    faces with face-decomposition tet quality < 1e-15      : 0
    faces with concavity > 80  degrees                     : 0
    faces with skewness > 4   (internal) or 20  (boundary) : 0
    faces with interpolation weights (0..1)  < 0.02        : 0
    faces with volume ratio of neighbour cells < 0.01      : 0
    faces with face twist < 0.02                           : 0
    faces on cells with determinant < 0.001                : 0
Successfully moved mesh
Moved mesh in = 1.72 s



Morph iteration 4
-----------------
Calculating patchDisplacement as distance to nearest surface point ...
Wanted displacement : average:0.00174565 min:9.3846e-08 max:0.0181546
Calculated surface displacement in = 0.08 s


Detecting near surfaces ...
Overriding nearest with intersection of close gaps at 397 out of 63839 points.
Overriding displacement on features :
   implicit features    : false
   explicit features    : true
   multi-patch features : false

Detected 1645 baffle edges out of 125677 edges.
Initially selected 22332 points out of 63839 for reverse attraction.
Selected 42604 points out of 63839 for reverse attraction.
Stringing feature edges : changed 1751 points
Stringing feature edges : changed 144 points
Stringing feature edges : changed 49 points
Stringing feature edges : changed 19 points
Stringing feature edges : changed 6 points
Stringing feature edges : changed 6 points
Stringing feature edges : changed 6 points
Stringing feature edges : changed 1 points
Stringing feature edges : changed 0 points
Attraction:
     linear   : max:(-2.3088e-05 -0.0181532 -0.00022485) avg:(-2.42753e-05 -5.8408e-06 -1.60775e-06)
     feature  : max:(0.0114743 0.00321566 -0.0501799) avg:(2.4107e-05 1.03694e-05 -1.63505e-05)
Feature analysis : total master points:61711 attraction to :
    feature point   : 1141
    feature edge    : 11196
    nearest surface : 0
    rest            : 49374

--> FOAM Warning : Displacement (0.000483442 2.01315e-05 0.000237962) at mesh point 17575 coord (0.385302 -0.269755 0.625565) points through the surrounding patch faces
Smoothing displacement ...
Iteration 0
Iteration 10
Iteration 20
Displacement smoothed in = 1.05 s


Moving mesh ...

Iteration 0
Moving mesh using displacement scaling : min:1  max:1
Checking faces in error :
    non-orthogonality > 65  degrees                        : 2
    faces with face pyramid volume < 1e-13                 : 6
    faces with face-decomposition tet quality < 1e-15      : 75
    faces with concavity > 80  degrees                     : 0
    faces with skewness > 4   (internal) or 20  (boundary) : 0
    faces with interpolation weights (0..1)  < 0.02        : 0
    faces with volume ratio of neighbour cells < 0.01      : 0
    faces with face twist < 0.02                           : 15
    faces on cells with determinant < 0.001                : 0

Iteration 1
Moving mesh using displacement scaling : min:0.75  max:1
Checking faces in error :
    non-orthogonality > 65  degrees                        : 1
    faces with face pyramid volume < 1e-13                 : 1
    faces with face-decomposition tet quality < 1e-15      : 48
    faces with concavity > 80  degrees                     : 0
    faces with skewness > 4   (internal) or 20  (boundary) : 0
    faces with interpolation weights (0..1)  < 0.02        : 0
    faces with volume ratio of neighbour cells < 0.01      : 0
    faces with face twist < 0.02                           : 16
    faces on cells with determinant < 0.001                : 0

Iteration 2
Moving mesh using displacement scaling : min:0.5625  max:1
Checking faces in error :
    non-orthogonality > 65  degrees                        : 1
    faces with face pyramid volume < 1e-13                 : 0
    faces with face-decomposition tet quality < 1e-15      : 35
    faces with concavity > 80  degrees                     : 0
    faces with skewness > 4   (internal) or 20  (boundary) : 0
    faces with interpolation weights (0..1)  < 0.02        : 0
    faces with volume ratio of neighbour cells < 0.01      : 0
    faces with face twist < 0.02                           : 5
    faces on cells with determinant < 0.001                : 0

Iteration 3
Moving mesh using displacement scaling : min:0.421875  max:1
Checking faces in error :
    non-orthogonality > 65  degrees                        : 1
    faces with face pyramid volume < 1e-13                 : 0
    faces with face-decomposition tet quality < 1e-15      : 25
    faces with concavity > 80  degrees                     : 0
    faces with skewness > 4   (internal) or 20  (boundary) : 0
    faces with interpolation weights (0..1)  < 0.02        : 0
    faces with volume ratio of neighbour cells < 0.01      : 0
    faces with face twist < 0.02                           : 7
    faces on cells with determinant < 0.001                : 0

Iteration 4
Moving mesh using displacement scaling : min:0.316406  max:1
Checking faces in error :
    non-orthogonality > 65  degrees                        : 0
    faces with face pyramid volume < 1e-13                 : 0
    faces with face-decomposition tet quality < 1e-15      : 18
    faces with concavity > 80  degrees                     : 0
    faces with skewness > 4   (internal) or 20  (boundary) : 0
    faces with interpolation weights (0..1)  < 0.02        : 0
    faces with volume ratio of neighbour cells < 0.01      : 0
    faces with face twist < 0.02                           : 11
    faces on cells with determinant < 0.001                : 0

Iteration 5
Displacement scaling for error reduction set to 0.
Moving mesh using displacement scaling : min:0.237305  max:1
Checking faces in error :
    non-orthogonality > 65  degrees                        : 0
    faces with face pyramid volume < 1e-13                 : 0
    faces with face-decomposition tet quality < 1e-15      : 18
    faces with concavity > 80  degrees                     : 0
    faces with skewness > 4   (internal) or 20  (boundary) : 0
    faces with interpolation weights (0..1)  < 0.02        : 0
    faces with volume ratio of neighbour cells < 0.01      : 0
    faces with face twist < 0.02                           : 2
    faces on cells with determinant < 0.001                : 0

Iteration 6
Moving mesh using displacement scaling : min:0  max:1
Checking faces in error :
    non-orthogonality > 65  degrees                        : 0
    faces with face pyramid volume < 1e-13                 : 0
    faces with face-decomposition tet quality < 1e-15      : 0
    faces with concavity > 80  degrees                     : 0
    faces with skewness > 4   (internal) or 20  (boundary) : 0
    faces with interpolation weights (0..1)  < 0.02        : 0
    faces with volume ratio of neighbour cells < 0.01      : 0
    faces with face twist < 0.02                           : 0
    faces on cells with determinant < 0.001                : 0
Successfully moved mesh
Moved mesh in = 2.17 s



Morph iteration 5
-----------------
Calculating patchDisplacement as distance to nearest surface point ...
Wanted displacement : average:0.00120369 min:1.0417e-08 max:0.0180488
Calculated surface displacement in = 0.07 s


Detecting near surfaces ...
Overriding nearest with intersection of close gaps at 590 out of 63839 points.
Overriding displacement on features :
   implicit features    : false
   explicit features    : true
   multi-patch features : false

Detected 1776 baffle edges out of 125677 edges.
Initially selected 22592 points out of 63839 for reverse attraction.
Selected 42582 points out of 63839 for reverse attraction.
Stringing feature edges : changed 1672 points
Stringing feature edges : changed 155 points
Stringing feature edges : changed 27 points
Stringing feature edges : changed 9 points
Stringing feature edges : changed 3 points
Stringing feature edges : changed 3 points
Stringing feature edges : changed 1 points
Stringing feature edges : changed 1 points
Stringing feature edges : changed 1 points
Stringing feature edges : changed 1 points
Stringing feature edges : changed 0 points
Attraction:
     linear   : max:(-2.29534e-05 -0.0180474 -0.000223539) avg:(-2.23887e-05 6.36796e-07 -4.3109e-06)
     feature  : max:(0.00898008 0.0030651 -0.0373952) avg:(1.45086e-05 1.33092e-05 -8.71715e-06)
Feature analysis : total master points:61711 attraction to :
    feature point   : 1139
    feature edge    : 11304
    nearest surface : 0
    rest            : 49268

--> FOAM Warning : Displacement (-0.000551687 -0.000283844 -0.000724885) at mesh point 11213 coord (0.375806 -0.125422 0.357319) points through the surrounding patch faces
Smoothing displacement ...
Iteration 0
Iteration 10
Iteration 20
Displacement smoothed in = 1.06 s


Moving mesh ...

Iteration 0
Moving mesh using displacement scaling : min:1  max:1
Checking faces in error :
    non-orthogonality > 65  degrees                        : 2
    faces with face pyramid volume < 1e-13                 : 30
    faces with face-decomposition tet quality < 1e-15      : 267
    faces with concavity > 80  degrees                     : 3
    faces with skewness > 4   (internal) or 20  (boundary) : 0
    faces with interpolation weights (0..1)  < 0.02        : 0
    faces with volume ratio of neighbour cells < 0.01      : 0
    faces with face twist < 0.02                           : 41
    faces on cells with determinant < 0.001                : 0

Iteration 1
Moving mesh using displacement scaling : min:0.75  max:1
Checking faces in error :
    non-orthogonality > 65  degrees                        : 2
    faces with face pyramid volume < 1e-13                 : 22
    faces with face-decomposition tet quality < 1e-15      : 193
    faces with concavity > 80  degrees                     : 2
    faces with skewness > 4   (internal) or 20  (boundary) : 0
    faces with interpolation weights (0..1)  < 0.02        : 0
    faces with volume ratio of neighbour cells < 0.01      : 0
    faces with face twist < 0.02                           : 24
    faces on cells with determinant < 0.001                : 0

Iteration 2
Moving mesh using displacement scaling : min:0.5625  max:1
Checking faces in error :
    non-orthogonality > 65  degrees                        : 1
    faces with face pyramid volume < 1e-13                 : 11
    faces with face-decomposition tet quality < 1e-15      : 163
    faces with concavity > 80  degrees                     : 0
    faces with skewness > 4   (internal) or 20  (boundary) : 0
    faces with interpolation weights (0..1)  < 0.02        : 0
    faces with volume ratio of neighbour cells < 0.01      : 0
    faces with face twist < 0.02                           : 22
    faces on cells with determinant < 0.001                : 0

Iteration 3
Moving mesh using displacement scaling : min:0.421875  max:1
Checking faces in error :
    non-orthogonality > 65  degrees                        : 1
    faces with face pyramid volume < 1e-13                 : 8
    faces with face-decomposition tet quality < 1e-15      : 128
    faces with concavity > 80  degrees                     : 0
    faces with skewness > 4   (internal) or 20  (boundary) : 0
    faces with interpolation weights (0..1)  < 0.02        : 0
    faces with volume ratio of neighbour cells < 0.01      : 0
    faces with face twist < 0.02                           : 21
    faces on cells with determinant < 0.001                : 0

Iteration 4
Moving mesh using displacement scaling : min:0.316406  max:1
Checking faces in error :
    non-orthogonality > 65  degrees                        : 1
    faces with face pyramid volume < 1e-13                 : 5
    faces with face-decomposition tet quality < 1e-15      : 99
    faces with concavity > 80  degrees                     : 0
    faces with skewness > 4   (internal) or 20  (boundary) : 0
    faces with interpolation weights (0..1)  < 0.02        : 0
    faces with volume ratio of neighbour cells < 0.01      : 0
    faces with face twist < 0.02                           : 26
    faces on cells with determinant < 0.001                : 0

Iteration 5
Displacement scaling for error reduction set to 0.
Moving mesh using displacement scaling : min:0.237305  max:1
Checking faces in error :
    non-orthogonality > 65  degrees                        : 1
    faces with face pyramid volume < 1e-13                 : 2
    faces with face-decomposition tet quality < 1e-15      : 82
    faces with concavity > 80  degrees                     : 0
    faces with skewness > 4   (internal) or 20  (boundary) : 0
    faces with interpolation weights (0..1)  < 0.02        : 0
    faces with volume ratio of neighbour cells < 0.01      : 0
    faces with face twist < 0.02                           : 28
    faces on cells with determinant < 0.001                : 0

Iteration 6
Moving mesh using displacement scaling : min:0  max:1
Checking faces in error :
    non-orthogonality > 65  degrees                        : 0
    faces with face pyramid volume < 1e-13                 : 0
    faces with face-decomposition tet quality < 1e-15      : 0
    faces with concavity > 80  degrees                     : 0
    faces with skewness > 4   (internal) or 20  (boundary) : 0
    faces with interpolation weights (0..1)  < 0.02        : 0
    faces with volume ratio of neighbour cells < 0.01      : 0
    faces with face twist < 0.02                           : 0
    faces on cells with determinant < 0.001                : 0
Successfully moved mesh
Moved mesh in = 2.87 s



Morph iteration 6
-----------------
Calculating patchDisplacement as distance to nearest surface point ...
Wanted displacement : average:0.000782044 min:1.44791e-08 max:0.017941
Calculated surface displacement in = 0.06 s


Detecting near surfaces ...
Overriding nearest with intersection of close gaps at 967 out of 63839 points.
Overriding displacement on features :
   implicit features    : false
   explicit features    : true
   multi-patch features : false

Detected 2010 baffle edges out of 125677 edges.
Initially selected 22655 points out of 63839 for reverse attraction.
Selected 42622 points out of 63839 for reverse attraction.
Stringing feature edges : changed 1573 points
Stringing feature edges : changed 137 points
Stringing feature edges : changed 34 points
Stringing feature edges : changed 9 points
Stringing feature edges : changed 3 points
Stringing feature edges : changed 0 points
Attraction:
     linear   : max:(-2.25826e-05 -0.0179396 -0.000223452) avg:(-1.97508e-05 4.1898e-06 -7.08869e-06)
     feature  : max:(-0.0165976 0.0134149 0.0480184) avg:(7.62e-06 1.25327e-05 -1.51061e-05)
Feature analysis : total master points:61711 attraction to :
    feature point   : 1158
    feature edge    : 11403
    nearest surface : 0
    rest            : 49150

--> FOAM Warning : Displacement (-0.000354742 -0.000338679 -0.000578786) at mesh point 11213 coord (0.375267 -0.125699 0.356611) points through the surrounding patch faces
Smoothing displacement ...
Iteration 0
Iteration 10
Iteration 20
Displacement smoothed in = 1.05 s


Moving mesh ...

Iteration 0
Moving mesh using displacement scaling : min:1  max:1
Checking faces in error :
    non-orthogonality > 65  degrees                        : 15
    faces with face pyramid volume < 1e-13                 : 77
    faces with face-decomposition tet quality < 1e-15      : 598
    faces with concavity > 80  degrees                     : 14
    faces with skewness > 4   (internal) or 20  (boundary) : 0
    faces with interpolation weights (0..1)  < 0.02        : 0
    faces with volume ratio of neighbour cells < 0.01      : 0
    faces with face twist < 0.02                           : 33
    faces on cells with determinant < 0.001                : 0

Iteration 1
Moving mesh using displacement scaling : min:0.75  max:1
Checking faces in error :
    non-orthogonality > 65  degrees                        : 5
    faces with face pyramid volume < 1e-13                 : 56
    faces with face-decomposition tet quality < 1e-15      : 484
    faces with concavity > 80  degrees                     : 5
    faces with skewness > 4   (internal) or 20  (boundary) : 0
    faces with interpolation weights (0..1)  < 0.02        : 0
    faces with volume ratio of neighbour cells < 0.01      : 0
    faces with face twist < 0.02                           : 34
    faces on cells with determinant < 0.001                : 0

Iteration 2
Moving mesh using displacement scaling : min:0.5625  max:1
Checking faces in error :
    non-orthogonality > 65  degrees                        : 4
    faces with face pyramid volume < 1e-13                 : 36
    faces with face-decomposition tet quality < 1e-15      : 385
    faces with concavity > 80  degrees                     : 5
    faces with skewness > 4   (internal) or 20  (boundary) : 0
    faces with interpolation weights (0..1)  < 0.02        : 0
    faces with volume ratio of neighbour cells < 0.01      : 0
    faces with face twist < 0.02                           : 40
    faces on cells with determinant < 0.001                : 0

Iteration 3
Moving mesh using displacement scaling : min:0.421875  max:1
Checking faces in error :
    non-orthogonality > 65  degrees                        : 2
    faces with face pyramid volume < 1e-13                 : 25
    faces with face-decomposition tet quality < 1e-15      : 315
    faces with concavity > 80  degrees                     : 3
    faces with skewness > 4   (internal) or 20  (boundary) : 0
    faces with interpolation weights (0..1)  < 0.02        : 0
    faces with volume ratio of neighbour cells < 0.01      : 0
    faces with face twist < 0.02                           : 44
    faces on cells with determinant < 0.001                : 0

Iteration 4
Moving mesh using displacement scaling : min:0.316406  max:1
Checking faces in error :
    non-orthogonality > 65  degrees                        : 2
    faces with face pyramid volume < 1e-13                 : 17
    faces with face-decomposition tet quality < 1e-15      : 255
    faces with concavity > 80  degrees                     : 3
    faces with skewness > 4   (internal) or 20  (boundary) : 0
    faces with interpolation weights (0..1)  < 0.02        : 0
    faces with volume ratio of neighbour cells < 0.01      : 0
    faces with face twist < 0.02                           : 62
    faces on cells with determinant < 0.001                : 0

Iteration 5
Displacement scaling for error reduction set to 0.
Moving mesh using displacement scaling : min:0.237305  max:1
Checking faces in error :
    non-orthogonality > 65  degrees                        : 2
    faces with face pyramid volume < 1e-13                 : 9
    faces with face-decomposition tet quality < 1e-15      : 208
    faces with concavity > 80  degrees                     : 3
    faces with skewness > 4   (internal) or 20  (boundary) : 0
    faces with interpolation weights (0..1)  < 0.02        : 0
    faces with volume ratio of neighbour cells < 0.01      : 0
    faces with face twist < 0.02                           : 53
    faces on cells with determinant < 0.001                : 0

Iteration 6
Moving mesh using displacement scaling : min:0  max:1
Checking faces in error :
    non-orthogonality > 65  degrees                        : 0
    faces with face pyramid volume < 1e-13                 : 0
    faces with face-decomposition tet quality < 1e-15      : 2
    faces with concavity > 80  degrees                     : 0
    faces with skewness > 4   (internal) or 20  (boundary) : 0
    faces with interpolation weights (0..1)  < 0.02        : 0
    faces with volume ratio of neighbour cells < 0.01      : 0
    faces with face twist < 0.02                           : 1
    faces on cells with determinant < 0.001                : 0

Iteration 7
Moving mesh using displacement scaling : min:0  max:1
Checking faces in error :
    non-orthogonality > 65  degrees                        : 0
    faces with face pyramid volume < 1e-13                 : 0
    faces with face-decomposition tet quality < 1e-15      : 0
    faces with concavity > 80  degrees                     : 0
    faces with skewness > 4   (internal) or 20  (boundary) : 0
    faces with interpolation weights (0..1)  < 0.02        : 0
    faces with volume ratio of neighbour cells < 0.01      : 0
    faces with face twist < 0.02                           : 0
    faces on cells with determinant < 0.001                : 0
Successfully moved mesh
Moved mesh in = 3.77 s



Morph iteration 7
-----------------
Calculating patchDisplacement as distance to nearest surface point ...
Wanted displacement : average:0.000499279 min:6.22844e-09 max:0.0178338
Calculated surface displacement in = 0.06 s


Detecting near surfaces ...
Overriding nearest with intersection of close gaps at 1438 out of 63839 points.
Overriding displacement on features :
   implicit features    : false
   explicit features    : true
   multi-patch features : false

Detected 2263 baffle edges out of 125677 edges.
Initially selected 22696 points out of 63839 for reverse attraction.
Selected 42706 points out of 63839 for reverse attraction.
Stringing feature edges : changed 1542 points
Stringing feature edges : changed 165 points
Stringing feature edges : changed 31 points
Stringing feature edges : changed 12 points
Stringing feature edges : changed 4 points
Stringing feature edges : changed 3 points
Stringing feature edges : changed 2 points
Stringing feature edges : changed 3 points
Stringing feature edges : changed 2 points
Stringing feature edges : changed 0 points
Attraction:
     linear   : max:(-2.24477e-05 -0.0178324 -0.000222118) avg:(-1.46208e-05 4.11043e-06 -5.64598e-06)
     feature  : max:(0.0443673 6.18955e-06 0.00387449) avg:(4.65268e-06 7.76429e-06 -3.92604e-06)
Feature analysis : total master points:61711 attraction to :
    feature point   : 1157
    feature edge    : 11501
    nearest surface : 0
    rest            : 49053

--> FOAM Warning : Displacement (-0.000614861 -0.00299186 -0.00115149) at mesh point 16652 coord (0.24995 -0.265975 0.762572) points through the surrounding patch faces
Smoothing displacement ...
Iteration 0
Iteration 10
Iteration 20
Displacement smoothed in = 1.04 s


Moving mesh ...

Iteration 0
Moving mesh using displacement scaling : min:1  max:1
Checking faces in error :
    non-orthogonality > 65  degrees                        : 34
    faces with face pyramid volume < 1e-13                 : 162
    faces with face-decomposition tet quality < 1e-15      : 1021
    faces with concavity > 80  degrees                     : 20
    faces with skewness > 4   (internal) or 20  (boundary) : 0
    faces with interpolation weights (0..1)  < 0.02        : 0
    faces with volume ratio of neighbour cells < 0.01      : 0
    faces with face twist < 0.02                           : 66
    faces on cells with determinant < 0.001                : 0

Iteration 1
Moving mesh using displacement scaling : min:0.75  max:1
Checking faces in error :
    non-orthogonality > 65  degrees                        : 16
    faces with face pyramid volume < 1e-13                 : 105
    faces with face-decomposition tet quality < 1e-15      : 814
    faces with concavity > 80  degrees                     : 14
    faces with skewness > 4   (internal) or 20  (boundary) : 0
    faces with interpolation weights (0..1)  < 0.02        : 0
    faces with volume ratio of neighbour cells < 0.01      : 0
    faces with face twist < 0.02                           : 50
    faces on cells with determinant < 0.001                : 0

Iteration 2
Moving mesh using displacement scaling : min:0.5625  max:1
Checking faces in error :
    non-orthogonality > 65  degrees                        : 6
    faces with face pyramid volume < 1e-13                 : 64
    faces with face-decomposition tet quality < 1e-15      : 689
    faces with concavity > 80  degrees                     : 15
    faces with skewness > 4   (internal) or 20  (boundary) : 0
    faces with interpolation weights (0..1)  < 0.02        : 0
    faces with volume ratio of neighbour cells < 0.01      : 0
    faces with face twist < 0.02                           : 61
    faces on cells with determinant < 0.001                : 0

Iteration 3
Moving mesh using displacement scaling : min:0.421875  max:1
Checking faces in error :
    non-orthogonality > 65  degrees                        : 4
    faces with face pyramid volume < 1e-13                 : 43
    faces with face-decomposition tet quality < 1e-15      : 600
    faces with concavity > 80  degrees                     : 12
    faces with skewness > 4   (internal) or 20  (boundary) : 0
    faces with interpolation weights (0..1)  < 0.02        : 0
    faces with volume ratio of neighbour cells < 0.01      : 0
    faces with face twist < 0.02                           : 59
    faces on cells with determinant < 0.001                : 0

Iteration 4
Moving mesh using displacement scaling : min:0.316406  max:1
Checking faces in error :
    non-orthogonality > 65  degrees                        : 4
    faces with face pyramid volume < 1e-13                 : 29
    faces with face-decomposition tet quality < 1e-15      : 502
    faces with concavity > 80  degrees                     : 10
    faces with skewness > 4   (internal) or 20  (boundary) : 0
    faces with interpolation weights (0..1)  < 0.02        : 0
    faces with volume ratio of neighbour cells < 0.01      : 0
    faces with face twist < 0.02                           : 82
    faces on cells with determinant < 0.001                : 0

Iteration 5
Displacement scaling for error reduction set to 0.
Moving mesh using displacement scaling : min:0.237305  max:1
Checking faces in error :
    non-orthogonality > 65  degrees                        : 3
    faces with face pyramid volume < 1e-13                 : 17
    faces with face-decomposition tet quality < 1e-15      : 410
    faces with concavity > 80  degrees                     : 9
    faces with skewness > 4   (internal) or 20  (boundary) : 0
    faces with interpolation weights (0..1)  < 0.02        : 0
    faces with volume ratio of neighbour cells < 0.01      : 0
    faces with face twist < 0.02                           : 101
    faces on cells with determinant < 0.001                : 0

Iteration 6
Moving mesh using displacement scaling : min:0  max:1
Checking faces in error :
    non-orthogonality > 65  degrees                        : 0
    faces with face pyramid volume < 1e-13                 : 0
    faces with face-decomposition tet quality < 1e-15      : 3
    faces with concavity > 80  degrees                     : 1
    faces with skewness > 4   (internal) or 20  (boundary) : 0
    faces with interpolation weights (0..1)  < 0.02        : 0
    faces with volume ratio of neighbour cells < 0.01      : 0
    faces with face twist < 0.02                           : 1
    faces on cells with determinant < 0.001                : 0

Iteration 7
Moving mesh using displacement scaling : min:0  max:1
Checking faces in error :
    non-orthogonality > 65  degrees                        : 0
    faces with face pyramid volume < 1e-13                 : 0
    faces with face-decomposition tet quality < 1e-15      : 0
    faces with concavity > 80  degrees                     : 0
    faces with skewness > 4   (internal) or 20  (boundary) : 0
    faces with interpolation weights (0..1)  < 0.02        : 0
    faces with volume ratio of neighbour cells < 0.01      : 0
    faces with face twist < 0.02                           : 0
    faces on cells with determinant < 0.001                : 0
Successfully moved mesh
Moved mesh in = 4.38 s



Morph iteration 8
-----------------
Calculating patchDisplacement as distance to nearest surface point ...
Wanted displacement : average:0.000332504 min:1.64805e-09 max:0.0177553
Calculated surface displacement in = 0.06 s


Detecting near surfaces ...
Overriding nearest with intersection of close gaps at 1800 out of 63839 points.
Overriding displacement on features :
   implicit features    : false
   explicit features    : true
   multi-patch features : false

Detected 2596 baffle edges out of 125677 edges.
Initially selected 22942 points out of 63839 for reverse attraction.
Selected 42696 points out of 63839 for reverse attraction.
Stringing feature edges : changed 1429 points
Stringing feature edges : changed 172 points
Stringing feature edges : changed 40 points
Stringing feature edges : changed 21 points
Stringing feature edges : changed 8 points
Stringing feature edges : changed 4 points
Stringing feature edges : changed 3 points
Stringing feature edges : changed 3 points
Stringing feature edges : changed 2 points
Stringing feature edges : changed 0 points
Attraction:
     linear   : max:(0.0126448 0.00191856 0.0158363) avg:(-1.02622e-05 6.65468e-06 -5.99856e-06)
     feature  : max:(-0.029724 -0.0378231 0.0137555) avg:(1.55792e-06 7.16024e-06 -3.63764e-06)
Feature analysis : total master points:61711 attraction to :
    feature point   : 1120
    feature edge    : 11690
    nearest surface : 0
    rest            : 48901

--> FOAM Warning : Displacement (-0.000598179 -0.00247857 -0.00114864) at mesh point 16652 coord (0.249335 -0.268967 0.76142) points through the surrounding patch faces
Smoothing displacement ...
Iteration 0
Iteration 10
Iteration 20
Displacement smoothed in = 1.04 s


Moving mesh ...

Iteration 0
Moving mesh using displacement scaling : min:1  max:1
Checking faces in error :
    non-orthogonality > 65  degrees                        : 57
    faces with face pyramid volume < 1e-13                 : 256
    faces with face-decomposition tet quality < 1e-15      : 1463
    faces with concavity > 80  degrees                     : 35
    faces with skewness > 4   (internal) or 20  (boundary) : 0
    faces with interpolation weights (0..1)  < 0.02        : 0
    faces with volume ratio of neighbour cells < 0.01      : 0
    faces with face twist < 0.02                           : 74
    faces on cells with determinant < 0.001                : 0

Iteration 1
Moving mesh using displacement scaling : min:0.75  max:1
Checking faces in error :
    non-orthogonality > 65  degrees                        : 32
    faces with face pyramid volume < 1e-13                 : 162
    faces with face-decomposition tet quality < 1e-15      : 1211
    faces with concavity > 80  degrees                     : 26
    faces with skewness > 4   (internal) or 20  (boundary) : 0
    faces with interpolation weights (0..1)  < 0.02        : 0
    faces with volume ratio of neighbour cells < 0.01      : 0
    faces with face twist < 0.02                           : 76
    faces on cells with determinant < 0.001                : 0

Iteration 2
Moving mesh using displacement scaling : min:0.5625  max:1
Checking faces in error :
    non-orthogonality > 65  degrees                        : 11
    faces with face pyramid volume < 1e-13                 : 110
    faces with face-decomposition tet quality < 1e-15      : 1029
    faces with concavity > 80  degrees                     : 28
    faces with skewness > 4   (internal) or 20  (boundary) : 0
    faces with interpolation weights (0..1)  < 0.02        : 0
    faces with volume ratio of neighbour cells < 0.01      : 0
[...]
displacementMedialAxis : Removing isolated regions ...
displacementMedialAxis : Number of isolated points extrusion stopped : 31
displacementMedialAxis : Smoothing field ...
    Iteration 0   residual 0.000105411
displacementMedialAxis : Moving mesh ...
displacementMedialAxis : Iteration 0
Moving mesh using displacement scaling : min:1  max:1
Checking faces in error :
    non-orthogonality > 65  degrees                        : 1
    faces with face pyramid volume < 1e-13                 : 0
    faces with face-decomposition tet quality < 1e-15      : 3
    faces with concavity > 80  degrees                     : 0
    faces with skewness > 4   (internal) or 20  (boundary) : 0
    faces with interpolation weights (0..1)  < 0.02        : 0
    faces with volume ratio of neighbour cells < 0.01      : 0
    faces with face twist < 0.02                           : 0
    faces on cells with determinant < 0.001                : 0
displacementMedialAxis : Iteration 1
Moving mesh using displacement scaling : min:0.75  max:1
Checking faces in error :
    non-orthogonality > 65  degrees                        : 0
    faces with face pyramid volume < 1e-13                 : 0
    faces with face-decomposition tet quality < 1e-15      : 0
    faces with concavity > 80  degrees                     : 0
    faces with skewness > 4   (internal) or 20  (boundary) : 0
    faces with interpolation weights (0..1)  < 0.02        : 0
    faces with volume ratio of neighbour cells < 0.01      : 0
    faces with face twist < 0.02                           : 0
    faces on cells with determinant < 0.001                : 0
displacementMedialAxis : Successfully moved mesh
displacementMedialAxis : Finished moving mesh ...
truncateDisplacement : Unextruded 0 faces due to non-consecutive vertices being extruded.
truncateDisplacement : Unextruded 0 faces due to stringed edges with inconsistent extrusion.

Setting up information for layer truncation ...

Checking mesh with layer ...
Checking faces in error :
    non-orthogonality > 65  degrees                        : 0
    faces with face pyramid volume < 1e-13                 : 0
    faces with face-decomposition tet quality < 1e-15      : 5
    faces with concavity > 80  degrees                     : 0
    faces with skewness > 4   (internal) or 20  (boundary) : 0
    faces with interpolation weights (0..1)  < 0.02        : 0
    faces with volume ratio of neighbour cells < 0.01      : 0
    faces with face twist < 0.02                           : 1
    faces on cells with determinant < 0.001                : 0
Detected 6 illegal faces (concave, zero area or negative cell pyramid volume)
Extruding 27836 out of 49394 faces (56.355%). Removed extrusion at 6 faces.
Added 27842 out of 49394 cells (56.3672%).


Layer addition iteration 8
--------------------------

Determining displacement for added points according to pointNormal ...
Detected 0 points with point normal pointing through faces.
Reset displacement at 0 points to average of surrounding points.

displacementMedialAxis : Smoothing using Medial Axis ...
displacementMedialAxis : Reducing layer thickness at 133 nodes where thickness to medial axis distance is large 
displacementMedialAxis : Removing isolated regions ...
displacementMedialAxis : Number of isolated points extrusion stopped : 17
displacementMedialAxis : Smoothing field ...
    Iteration 0   residual 0.000105215
displacementMedialAxis : Moving mesh ...
displacementMedialAxis : Iteration 0
Moving mesh using displacement scaling : min:1  max:1
Checking faces in error :
    non-orthogonality > 65  degrees                        : 1
    faces with face pyramid volume < 1e-13                 : 0
    faces with face-decomposition tet quality < 1e-15      : 3
    faces with concavity > 80  degrees                     : 0
    faces with skewness > 4   (internal) or 20  (boundary) : 0
    faces with interpolation weights (0..1)  < 0.02        : 0
    faces with volume ratio of neighbour cells < 0.01      : 0
    faces with face twist < 0.02                           : 0
    faces on cells with determinant < 0.001                : 0
displacementMedialAxis : Iteration 1
Moving mesh using displacement scaling : min:0.75  max:1
Checking faces in error :
    non-orthogonality > 65  degrees                        : 0
    faces with face pyramid volume < 1e-13                 : 0
    faces with face-decomposition tet quality < 1e-15      : 0
    faces with concavity > 80  degrees                     : 0
    faces with skewness > 4   (internal) or 20  (boundary) : 0
    faces with interpolation weights (0..1)  < 0.02        : 0
    faces with volume ratio of neighbour cells < 0.01      : 0
    faces with face twist < 0.02                           : 0
    faces on cells with determinant < 0.001                : 0
displacementMedialAxis : Successfully moved mesh
displacementMedialAxis : Finished moving mesh ...
truncateDisplacement : Unextruded 0 faces due to non-consecutive vertices being extruded.
truncateDisplacement : Unextruded 0 faces due to stringed edges with inconsistent extrusion.

Setting up information for layer truncation ...

Checking mesh with layer ...
Checking faces in error :
    non-orthogonality > 65  degrees                        : 1
    faces with face pyramid volume < 1e-13                 : 0
    faces with face-decomposition tet quality < 1e-15      : 2
    faces with concavity > 80  degrees                     : 0
    faces with skewness > 4   (internal) or 20  (boundary) : 0
    faces with interpolation weights (0..1)  < 0.02        : 0
    faces with volume ratio of neighbour cells < 0.01      : 0
    faces with face twist < 0.02                           : 1
    faces on cells with determinant < 0.001                : 0
Detected 4 illegal faces (concave, zero area or negative cell pyramid volume)
Extruding 27804 out of 49394 faces (56.2902%). Removed extrusion at 4 faces.
Added 27808 out of 49394 cells (56.2983%).


Layer addition iteration 9
--------------------------

Determining displacement for added points according to pointNormal ...
Detected 0 points with point normal pointing through faces.
Reset displacement at 0 points to average of surrounding points.

displacementMedialAxis : Smoothing using Medial Axis ...
displacementMedialAxis : Reducing layer thickness at 133 nodes where thickness to medial axis distance is large 
displacementMedialAxis : Removing isolated regions ...
displacementMedialAxis : Number of isolated points extrusion stopped : 9
displacementMedialAxis : Smoothing field ...
    Iteration 0   residual 0.000105043
displacementMedialAxis : Moving mesh ...
displacementMedialAxis : Iteration 0
Moving mesh using displacement scaling : min:1  max:1
Checking faces in error :
    non-orthogonality > 65  degrees                        : 1
    faces with face pyramid volume < 1e-13                 : 0
    faces with face-decomposition tet quality < 1e-15      : 3
    faces with concavity > 80  degrees                     : 0
    faces with skewness > 4   (internal) or 20  (boundary) : 0
    faces with interpolation weights (0..1)  < 0.02        : 0
    faces with volume ratio of neighbour cells < 0.01      : 0
    faces with face twist < 0.02                           : 0
    faces on cells with determinant < 0.001                : 0
displacementMedialAxis : Iteration 1
Moving mesh using displacement scaling : min:0.75  max:1
Checking faces in error :
    non-orthogonality > 65  degrees                        : 0
    faces with face pyramid volume < 1e-13                 : 0
    faces with face-decomposition tet quality < 1e-15      : 0
    faces with concavity > 80  degrees                     : 0
    faces with skewness > 4   (internal) or 20  (boundary) : 0
    faces with interpolation weights (0..1)  < 0.02        : 0
    faces with volume ratio of neighbour cells < 0.01      : 0
    faces with face twist < 0.02                           : 0
    faces on cells with determinant < 0.001                : 0
displacementMedialAxis : Successfully moved mesh
displacementMedialAxis : Finished moving mesh ...
truncateDisplacement : Unextruded 0 faces due to non-consecutive vertices being extruded.
truncateDisplacement : Unextruded 0 faces due to stringed edges with inconsistent extrusion.

Setting up information for layer truncation ...

Checking mesh with layer ...
Checking faces in error :
    non-orthogonality > 65  degrees                        : 1
    faces with face pyramid volume < 1e-13                 : 0
    faces with face-decomposition tet quality < 1e-15      : 0
    faces with concavity > 80  degrees                     : 0
    faces with skewness > 4   (internal) or 20  (boundary) : 0
    faces with interpolation weights (0..1)  < 0.02        : 0
    faces with volume ratio of neighbour cells < 0.01      : 0
    faces with face twist < 0.02                           : 0
    faces on cells with determinant < 0.001                : 0
Detected 1 illegal faces (concave, zero area or negative cell pyramid volume)
Extruding 27784 out of 49394 faces (56.2497%). Removed extrusion at 1 faces.
Added 27787 out of 49394 cells (56.2558%).


Layer addition iteration 10
--------------------------

Determining displacement for added points according to pointNormal ...
Detected 0 points with point normal pointing through faces.
Reset displacement at 0 points to average of surrounding points.

displacementMedialAxis : Smoothing using Medial Axis ...
displacementMedialAxis : Reducing layer thickness at 133 nodes where thickness to medial axis distance is large 
displacementMedialAxis : Removing isolated regions ...
displacementMedialAxis : Number of isolated points extrusion stopped : 0
displacementMedialAxis : Smoothing field ...
    Iteration 0   residual 0.00010504
displacementMedialAxis : Moving mesh ...
displacementMedialAxis : Iteration 0
Moving mesh using displacement scaling : min:1  max:1
Checking faces in error :
    non-orthogonality > 65  degrees                        : 1
    faces with face pyramid volume < 1e-13                 : 0
    faces with face-decomposition tet quality < 1e-15      : 3
    faces with concavity > 80  degrees                     : 0
    faces with skewness > 4   (internal) or 20  (boundary) : 0
    faces with interpolation weights (0..1)  < 0.02        : 0
    faces with volume ratio of neighbour cells < 0.01      : 0
    faces with face twist < 0.02                           : 0
    faces on cells with determinant < 0.001                : 0
displacementMedialAxis : Iteration 1
Moving mesh using displacement scaling : min:0.75  max:1
Checking faces in error :
    non-orthogonality > 65  degrees                        : 0
    faces with face pyramid volume < 1e-13                 : 0
    faces with face-decomposition tet quality < 1e-15      : 0
    faces with concavity > 80  degrees                     : 0
    faces with skewness > 4   (internal) or 20  (boundary) : 0
    faces with interpolation weights (0..1)  < 0.02        : 0
    faces with volume ratio of neighbour cells < 0.01      : 0
    faces with face twist < 0.02                           : 0
    faces on cells with determinant < 0.001                : 0
displacementMedialAxis : Successfully moved mesh
displacementMedialAxis : Finished moving mesh ...
truncateDisplacement : Unextruded 0 faces due to non-consecutive vertices being extruded.
truncateDisplacement : Unextruded 0 faces due to stringed edges with inconsistent extrusion.

Setting up information for layer truncation ...

Checking mesh with layer ...
Checking faces in error :
    non-orthogonality > 65  degrees                        : 0
    faces with face pyramid volume < 1e-13                 : 0
    faces with face-decomposition tet quality < 1e-15      : 0
    faces with concavity > 80  degrees                     : 0
    faces with skewness > 4   (internal) or 20  (boundary) : 0
    faces with interpolation weights (0..1)  < 0.02        : 0
    faces with volume ratio of neighbour cells < 0.01      : 0
    faces with face twist < 0.02                           : 0
    faces on cells with determinant < 0.001                : 0
Detected 0 illegal faces (concave, zero area or negative cell pyramid volume)
Extruding 27784 out of 49394 faces (56.2497%). Removed extrusion at 0 faces.
Added 27784 out of 49394 cells (56.2497%).
Edge intersection testing:
    Number of edges             : 1103967
    Number of edges to retest   : 0
    Number of intersected edges : 64678

Doing final balancing
---------------------

Writing 27784 added cells to cellSet addedCells
Writing 0 faces inside added layer to faceSet layerFaces

Writing fields with layer information:
    nSurfaceLayers    : actual number of layers
    thickness         : overall layer thickness
    thicknessFraction : overall layer thickness (fraction of desired thickness)


patch                                            faces    layers   overall thickness
                                                                   [m]       [%]
-----                                            -----    ------   ---       ---
lowerWall                                        5349     0.987    0.0244    92.7    
motorBike_frt-fairing:001%1                      5304     0.373    0.000917  19.6    
motorBike_windshield:002%2                       50       0.9      0.00328   70.4    
motorBike_rr-wh-rim:005%5                        116      0.414    0.00059   12.6    
motorBike_rr-wh-rim:010%10                       353      0.133    0.00013   2.92    
motorBike_fr-wh-rim:011%11                       500      0.246    0.000243  5.24    
motorBike_fr-wh-brake-disk:012%12                46       0        0         0       
motorBike_frame:016-shadow%13                    98       0.0102   8.79e-06  0.25    
motorBike_rear-susp:014%14                       795      0.353    0.000431  9.22    
motorBike_rear-susp:014-shadow%15                455      0.356    0.000439  9.46    
motorBike_frame:016%16                           64       0.0156   1.26e-05  0.357   
motorBike_rr-wh-rim:005-shadow%17                74       0.419    0.000657  14      
motorBike_rr-wh-chain-hub:022%22                 128      0        0         0       
motorBike_rearseat%24                            421      0.703    0.00222   46.9    
motorBike_frt-fairing%25                         615      0.74     0.00204   43.6    
motorBike_windshield%26                          363      0.0771   7.16e-05  1.53    
motorBike_headlights%27                          154      0.968    0.00374   79.9    
motorBike_driversseat%28                         359      0.323    0.000471  10.3    
motorBike_rear-body%29                           2041     0.618    0.00165   35.2    
motorBike_fuel-tank%30                           886      0.808    0.00278   59.9    
motorBike_exhaust%31                             2332     0.38     0.0017    36.2    
motorBike_rr-wh-rim%32                           1375     0.706    0.00172   37      
motorBike_fr-mud-guard%33                        610      0.221    0.000327  6.98    
motorBike_fr-wh-rim%34                           576      0.361    0.000563  12.1    
motorBike_fr-wh-brake-disk%35                    456      0.364    0.000371  8.09    
motorBike_fr-brake-caliper%36                    158      0        0         0       
motorBike_fr-wh-tyre%37                          1115     0.568    0.00183   39.2    
motorBike_hbars%38                               526      0        0         0       
motorBike_fr-forks%39                            1098     0.437    0.00146   31.2    
motorBike_chain%40                               454      0.0573   4.81e-05  1.15    
motorBike_rr-wh-tyre%41                          1842     0.79     0.0029    61.9    
motorBike_square-dial%42                         6        1        0.00165   35.2    
motorBike_round-dial%43                          15       0        0         0       
motorBike_dial-holder%44                         85       0.153    0.000101  2.29    
motorBike_rear-susp%45                           1724     0.428    0.000604  13      
motorBike_rear-brake-lights%46                   54       0        0         0       
motorBike_rear-light-bracket%47                  156      0.455    0.000661  14.1    
motorBike_frame%48                               2008     0.504    0.00102   21.9    
motorBike_rear-mud-guard%49                      641      0.315    0.000534  11.4    
motorBike_rear-susp-spring-damp%50               86       0        0         0       
motorBike_fairing-inner-plate%51                 442      0.62     0.00167   35.5    
motorBike_clutch-housing%52                      928      0.691    0.0015    32.1    
motorBike_radiator%53                            45       0        0         0       
motorBike_water-pipe%54                          94       0        0         0       
motorBike_water-pump%55                          73       0        0         0       
motorBike_engine%56                              2306     0.725    0.0016    34.1    
motorBike_rear-shock-link%57                     25       0        0         0       
motorBike_rear-brake-fluid-pot-bracket%58        42       0.548    0.000522  11.1    
motorBike_rear-brake-fluid-pot%59                50       0        0         0       
motorBike_footpeg%60                             89       0        0         0       
motorBike_rr-wh-chain-hub%61                     127      0.189    0.000208  4.63    
motorBike_rear-brake-caliper%62                  143      0.0839   7.91e-05  1.69    
motorBike_rider-helmet%65                        761      0.945    0.00376   80.2    
motorBike_rider-visor%66                         165      1        0.00446   95.2    
motorBike_rider-boots%67                         1006     0.822    0.00272   58      
motorBike_rider-gloves%68                        309      0.165    0.000225  4.79    
motorBike_rider-body%69                          4559     0.859    0.00328   66.8    
motorBike_frame:0%70                             37       0.0541   3.25e-05  0.692   
motorBike_frt-fairing:001-shadow%74              3308     0.345    0.000881  18.9    
motorBike_windshield-shadow%75                   265      0.0566   5.86e-05  1.25    
motorBike_fr-mud-guard-shadow%81                 381      0.207    0.000343  7.32    
motorBike_fr-wh-brake-disk-shadow%83             179      0.274    0.000281  6.09    
motorBike_rear-mud-guard-shadow%84               406      0.335    0.000589  12.6    
motorBike_rear-susp-spring-damp-shadow%85        45       0        0         0       
motorBike_radiator-shadow%86                     26       0        0         0       
motorBike_rear-shock-link-shadow%87              10       0        0         0       
motorBike_rear-brake-fluid-pot-bracket-shadow%88 25       0.4      0.000337  7.19    
motorBike_rr-wh-chain-hub-shadow%89              60       0.133    0.000102  2.24    

Layer mesh : cells:352297  faces:1103967  points:404768
Cells per refinement level:
    0	1018
    1	1871
    2	5324
    3	9824
    4	134910
    5	23761
    6	175589
Writing mesh to time constant
Wrote mesh in = 40.6 s.
Layers added in = 40.6 s.
Checking final mesh ...
Checking faces in error :
    non-orthogonality > 65  degrees                        : 0
    faces with face pyramid volume < 1e-13                 : 0
    faces with face-decomposition tet quality < 1e-15      : 0
    faces with concavity > 80  degrees                     : 0
    faces with skewness > 4   (internal) or 20  (boundary) : 0
    faces with interpolation weights (0..1)  < 0.02        : 0
    faces with volume ratio of neighbour cells < 0.01      : 0
    faces with face twist < 0.02                           : 0
    faces on cells with determinant < 0.001                : 0
Finished meshing without any errors
Finished meshing in = 127.73 s.
End

Finalising parallel run
