--------------------------------------------------------------------------
[[30476,1],0]: A high-performance Open MPI point-to-point messaging module
was unable to find any relevant network interfaces:

Module: OpenFabrics (openib)
  Host: arc

Another transport will be used instead, although this may result in
lower performance.
--------------------------------------------------------------------------
/*---------------------------------------------------------------------------*\
| =========                 |                                                 |
| \\      /  F ield         | OpenFOAM: The Open Source CFD Toolbox           |
|  \\    /   O peration     | Version:  4.1                                   |
|   \\  /    A nd           | Web:      www.OpenFOAM.org                      |
|    \\/     M anipulation  |                                                 |
\*---------------------------------------------------------------------------*/
Build  : 4.1
Exec   : simpleFoam -parallel
Date   : Jan 29 2017
Time   : 22:12:30
Host   : "arc"
PID    : 27093
Case   : /home/relay/OpenFOAM/relay-4.1/run/motorBike
nProcs : 6
Slaves : 
5
(
"arc.27094"
"arc.27095"
"arc.27096"
"arc.27097"
"arc.27098"
)

Pstream initialized with:
    floatTransfer      : 0
    nProcsSimpleSum    : 0
    commsType          : nonBlocking
    polling iterations : 0
sigFpe : Enabling floating point exception trapping (FOAM_SIGFPE).
fileModificationChecking : Monitoring run-time modified files using timeStampMaster
allowSystemOperations : Allowing user-supplied system call operations

// * * * * * * * * * * * * * * * * * * * * * * * * * * * * * * * * * * * * * //
Create time

Create mesh for time = 0


SIMPLE: no convergence criteria found. Calculations will run for 500 steps.

Reading field p

Reading field U

Reading/calculating face flux field phi

Selecting incompressible transport model Newtonian
Selecting turbulence model type RAS
Selecting RAS turbulence model kOmegaSST
Selecting patchDistMethod meshWave
kOmegaSSTCoeffs
{
    alphaK1         0.85;
    alphaK2         1;
    alphaOmega1     0.5;
    alphaOmega2     0.856;
    gamma1          0.555556;
    gamma2          0.44;
    beta1           0.075;
    beta2           0.0828;
    betaStar        0.09;
    a1              0.31;
    b1              1;
    c1              10;
    F3              false;
}

No MRF models present

No finite volume options present


Starting time loop

streamLine streamLines:
    automatic track length specified through number of sub cycles : 5

nearWallFields near: Sampling 1 fields
Reading surface description:
    yNormal

forces forceCoeffs1:
    Not including porosity effects
forceCoeffs forceCoeffs1:
    Not including porosity effects
Time = 1

smoothSolver:  Solving for Ux, Initial residual = 0.0879061, Final residual = 0.00786352, No Iterations 7
smoothSolver:  Solving for Uy, Initial residual = 0.589569, Final residual = 0.0582079, No Iterations 6
smoothSolver:  Solving for Uz, Initial residual = 0.399931, Final residual = 0.0369237, No Iterations 5
GAMG:  Solving for p, Initial residual = 1, Final residual = 0.00593109, No Iterations 5
time step continuity errors : sum local = 0.00060213, global = 4.12014e-06, cumulative = 4.12014e-06
smoothSolver:  Solving for omega, Initial residual = 0.00269224, Final residual = 0.000193404, No Iterations 3
bounding omega, min: -186.35 max: 29254.4 average: 232.182
smoothSolver:  Solving for k, Initial residual = 1, Final residual = 0.0714847, No Iterations 3
ExecutionTime = 2.52 s  ClockTime = 2 s

forceCoeffs forceCoeffs1 write:
    Cm    = 0.567748
    Cd    = 1.33524
    Cl    = -0.0353903
    Cl(f) = 0.550052
    Cl(r) = -0.585443

Time = 2

smoothSolver:  Solving for Ux, Initial residual = 0.0387745, Final residual = 0.00363824, No Iterations 7
smoothSolver:  Solving for Uy, Initial residual = 0.388111, Final residual = 0.0336784, No Iterations 7
smoothSolver:  Solving for Uz, Initial residual = 0.163781, Final residual = 0.0125609, No Iterations 7
GAMG:  Solving for p, Initial residual = 0.0761497, Final residual = 0.000360979, No Iterations 5
time step continuity errors : sum local = 0.000371083, global = 1.2999e-05, cumulative = 1.71191e-05
smoothSolver:  Solving for omega, Initial residual = 0.00239471, Final residual = 0.000210246, No Iterations 3
bounding omega, min: -19.3608 max: 30816.7 average: 291.317
smoothSolver:  Solving for k, Initial residual = 0.0833186, Final residual = 0.0063957, No Iterations 3
ExecutionTime = 3.07 s  ClockTime = 3 s

forceCoeffs forceCoeffs1 write:
    Cm    = 0.652497
    Cd    = 1.52989
    Cl    = -0.0527598
    Cl(f) = 0.626117
    Cl(r) = -0.678877

Time = 3

smoothSolver:  Solving for Ux, Initial residual = 0.02034, Final residual = 0.00157523, No Iterations 8
smoothSolver:  Solving for Uy, Initial residual = 0.299147, Final residual = 0.0266196, No Iterations 7
smoothSolver:  Solving for Uz, Initial residual = 0.11028, Final residual = 0.0090082, No Iterations 7
GAMG:  Solving for p, Initial residual = 0.0521414, Final residual = 0.000512737, No Iterations 4
time step continuity errors : sum local = 0.000735371, global = 1.23919e-06, cumulative = 1.83583e-05
smoothSolver:  Solving for omega, Initial residual = 0.00210248, Final residual = 0.000196995, No Iterations 3
smoothSolver:  Solving for k, Initial residual = 0.0372033, Final residual = 0.00301228, No Iterations 3
ExecutionTime = 3.59 s  ClockTime = 3 s

forceCoeffs forceCoeffs1 write:
    Cm    = 0.570736
    Cd    = 1.33494
    Cl    = -0.0401902
    Cl(f) = 0.550641
    Cl(r) = -0.590832

Time = 4

smoothSolver:  Solving for Ux, Initial residual = 0.0136811, Final residual = 0.001103, No Iterations 8
smoothSolver:  Solving for Uy, Initial residual = 0.240424, Final residual = 0.020658, No Iterations 7
smoothSolver:  Solving for Uz, Initial residual = 0.0992428, Final residual = 0.00830002, No Iterations 7
GAMG:  Solving for p, Initial residual = 0.0457451, Final residual = 0.000400055, No Iterations 4
time step continuity errors : sum local = 0.000662228, global = 2.99718e-06, cumulative = 2.13555e-05
[arc:27092] 5 more processes have sent help message help-mpi-btl-base.txt / btl:no-nics
[arc:27092] Set MCA parameter "orte_base_help_aggregate" to 0 to see all help / error messages
smoothSolver:  Solving for omega, Initial residual = 0.00194169, Final residual = 0.000179638, No Iterations 3
smoothSolver:  Solving for k, Initial residual = 0.0221766, Final residual = 0.0018275, No Iterations 3
ExecutionTime = 4.09 s  ClockTime = 4 s

forceCoeffs forceCoeffs1 write:
    Cm    = 0.462
    Cd    = 1.08391
    Cl    = -0.0288352
    Cl(f) = 0.447582
    Cl(r) = -0.476418

Time = 5

smoothSolver:  Solving for Ux, Initial residual = 0.0106106, Final residual = 0.000827413, No Iterations 8
smoothSolver:  Solving for Uy, Initial residual = 0.207311, Final residual = 0.0173909, No Iterations 7
smoothSolver:  Solving for Uz, Initial residual = 0.102302, Final residual = 0.00862224, No Iterations 7
GAMG:  Solving for p, Initial residual = 0.0412629, Final residual = 0.000337403, No Iterations 4
time step continuity errors : sum local = 0.000617082, global = 1.01302e-05, cumulative = 3.14857e-05
smoothSolver:  Solving for omega, Initial residual = 0.00168284, Final residual = 0.00015054, No Iterations 3
smoothSolver:  Solving for k, Initial residual = 0.0152359, Final residual = 0.00126376, No Iterations 3
ExecutionTime = 4.58 s  ClockTime = 4 s

forceCoeffs forceCoeffs1 write:
    Cm    = 0.371753
    Cd    = 0.878681
    Cl    = -0.0181161
    Cl(f) = 0.362695
    Cl(r) = -0.380811

Time = 6

smoothSolver:  Solving for Ux, Initial residual = 0.00851856, Final residual = 0.000642881, No Iterations 8
smoothSolver:  Solving for Uy, Initial residual = 0.186019, Final residual = 0.0154474, No Iterations 7
smoothSolver:  Solving for Uz, Initial residual = 0.108543, Final residual = 0.00921682, No Iterations 7
GAMG:  Solving for p, Initial residual = 0.0369462, Final residual = 0.000279867, No Iterations 4
time step continuity errors : sum local = 0.000553699, global = 1.7711e-05, cumulative = 4.91966e-05
smoothSolver:  Solving for omega, Initial residual = 0.00144023, Final residual = 0.000125226, No Iterations 3
smoothSolver:  Solving for k, Initial residual = 0.0116416, Final residual = 0.000967804, No Iterations 3
ExecutionTime = 5.05 s  ClockTime = 5 s

forceCoeffs forceCoeffs1 write:
    Cm    = 0.304297
    Cd    = 0.726023
    Cl    = -0.00373632
    Cl(f) = 0.302429
    Cl(r) = -0.306165

Time = 7

smoothSolver:  Solving for Ux, Initial residual = 0.00713212, Final residual = 0.000700104, No Iterations 7
smoothSolver:  Solving for Uy, Initial residual = 0.167108, Final residual = 0.0138692, No Iterations 7
smoothSolver:  Solving for Uz, Initial residual = 0.11995, Final residual = 0.0101468, No Iterations 7
GAMG:  Solving for p, Initial residual = 0.0329984, Final residual = 0.000231403, No Iterations 4
time step continuity errors : sum local = 0.000486864, global = 2.22087e-05, cumulative = 7.14053e-05
smoothSolver:  Solving for omega, Initial residual = 0.00123691, Final residual = 0.000104936, No Iterations 3
smoothSolver:  Solving for k, Initial residual = 0.00953205, Final residual = 0.000793027, No Iterations 3
ExecutionTime = 5.53 s  ClockTime = 5 s

forceCoeffs forceCoeffs1 write:
    Cm    = 0.259667
    Cd    = 0.623845
    Cl    = 0.00638052
    Cl(f) = 0.262858
    Cl(r) = -0.256477

Time = 8

smoothSolver:  Solving for Ux, Initial residual = 0.00612137, Final residual = 0.000602387, No Iterations 7
smoothSolver:  Solving for Uy, Initial residual = 0.148848, Final residual = 0.0122796, No Iterations 7
smoothSolver:  Solving for Uz, Initial residual = 0.132366, Final residual = 0.0111491, No Iterations 7
GAMG:  Solving for p, Initial residual = 0.0300215, Final residual = 0.000184809, No Iterations 4
time step continuity errors : sum local = 0.000406707, global = 2.2662e-05, cumulative = 9.40673e-05
smoothSolver:  Solving for omega, Initial residual = 0.00107897, Final residual = 8.9783e-05, No Iterations 3
smoothSolver:  Solving for k, Initial residual = 0.00815321, Final residual = 0.000681542, No Iterations 3
ExecutionTime = 6.01 s  ClockTime = 6 s

forceCoeffs forceCoeffs1 write:
    Cm    = 0.230612
    Cd    = 0.557259
    Cl    = 0.0104975
    Cl(f) = 0.23586
    Cl(r) = -0.225363

Time = 9

smoothSolver:  Solving for Ux, Initial residual = 0.00537843, Final residual = 0.000404393, No Iterations 8
smoothSolver:  Solving for Uy, Initial residual = 0.132142, Final residual = 0.0107967, No Iterations 7
smoothSolver:  Solving for Uz, Initial residual = 0.138047, Final residual = 0.0115575, No Iterations 7
GAMG:  Solving for p, Initial residual = 0.0278189, Final residual = 0.000150557, No Iterations 4
time step continuity errors : sum local = 0.00034025, global = 1.88791e-05, cumulative = 0.000112946
smoothSolver:  Solving for omega, Initial residual = 0.000960986, Final residual = 7.84105e-05, No Iterations 3
smoothSolver:  Solving for k, Initial residual = 0.00717463, Final residual = 0.000603433, No Iterations 3
ExecutionTime = 6.47 s  ClockTime = 6 s

forceCoeffs forceCoeffs1 write:
    Cm    = 0.211242
    Cd    = 0.513522
    Cl    = 0.0129558
    Cl(f) = 0.21772
    Cl(r) = -0.204764

Time = 10

smoothSolver:  Solving for Ux, Initial residual = 0.00482041, Final residual = 0.000370523, No Iterations 8
smoothSolver:  Solving for Uy, Initial residual = 0.118864, Final residual = 0.0096304, No Iterations 7
smoothSolver:  Solving for Uz, Initial residual = 0.121083, Final residual = 0.0101613, No Iterations 7
GAMG:  Solving for p, Initial residual = 0.0261645, Final residual = 0.000128728, No Iterations 4
time step continuity errors : sum local = 0.000293759, global = 1.08957e-05, cumulative = 0.000123842
smoothSolver:  Solving for omega, Initial residual = 0.00086772, Final residual = 7.00334e-05, No Iterations 3
smoothSolver:  Solving for k, Initial residual = 0.00645606, Final residual = 0.000548032, No Iterations 3
ExecutionTime = 6.95 s  ClockTime = 7 s

forceCoeffs forceCoeffs1 write:
    Cm    = 0.198026
    Cd    = 0.484953
    Cl    = 0.0149836
    Cl(f) = 0.205517
    Cl(r) = -0.190534

Time = 11

smoothSolver:  Solving for Ux, Initial residual = 0.00438495, Final residual = 0.000340675, No Iterations 8
smoothSolver:  Solving for Uy, Initial residual = 0.106701, Final residual = 0.00866904, No Iterations 7
smoothSolver:  Solving for Uz, Initial residual = 0.110254, Final residual = 0.00928824, No Iterations 7
GAMG:  Solving for p, Initial residual = 0.0250538, Final residual = 0.000120759, No Iterations 4
time step continuity errors : sum local = 0.000275013, global = 5.84001e-06, cumulative = 0.000129682
smoothSolver:  Solving for omega, Initial residual = 0.000801183, Final residual = 6.33451e-05, No Iterations 3
smoothSolver:  Solving for k, Initial residual = 0.00599289, Final residual = 0.000508209, No Iterations 3
ExecutionTime = 7.43 s  ClockTime = 7 s

forceCoeffs forceCoeffs1 write:
    Cm    = 0.189179
    Cd    = 0.466181
    Cl    = 0.0182522
    Cl(f) = 0.198305
    Cl(r) = -0.180053

Time = 12

smoothSolver:  Solving for Ux, Initial residual = 0.00408029, Final residual = 0.000316807, No Iterations 8
smoothSolver:  Solving for Uy, Initial residual = 0.0969375, Final residual = 0.00796033, No Iterations 7
smoothSolver:  Solving for Uz, Initial residual = 0.105475, Final residual = 0.0089912, No Iterations 7
GAMG:  Solving for p, Initial residual = 0.0241281, Final residual = 0.000119391, No Iterations 4
time step continuity errors : sum local = 0.000268821, global = 3.44688e-06, cumulative = 0.000133129
smoothSolver:  Solving for omega, Initial residual = 0.000748056, Final residual = 5.82253e-05, No Iterations 3
smoothSolver:  Solving for k, Initial residual = 0.00564966, Final residual = 0.000479028, No Iterations 3
ExecutionTime = 7.89 s  ClockTime = 8 s

forceCoeffs forceCoeffs1 write:
    Cm    = 0.183726
    Cd    = 0.453685
    Cl    = 0.0228111
    Cl(f) = 0.195131
    Cl(r) = -0.17232

Time = 13

smoothSolver:  Solving for Ux, Initial residual = 0.00386451, Final residual = 0.000298233, No Iterations 8
smoothSolver:  Solving for Uy, Initial residual = 0.0882359, Final residual = 0.00740807, No Iterations 7
smoothSolver:  Solving for Uz, Initial residual = 0.102559, Final residual = 0.00885214, No Iterations 7
GAMG:  Solving for p, Initial residual = 0.0234912, Final residual = 0.000119649, No Iterations 4
time step continuity errors : sum local = 0.000265232, global = 3.55562e-06, cumulative = 0.000136685
smoothSolver:  Solving for omega, Initial residual = 0.000697749, Final residual = 5.38929e-05, No Iterations 3
smoothSolver:  Solving for k, Initial residual = 0.00535453, Final residual = 0.000456477, No Iterations 3
ExecutionTime = 8.36 s  ClockTime = 8 s

forceCoeffs forceCoeffs1 write:
    Cm    = 0.180631
    Cd    = 0.445626
    Cl    = 0.0287254
    Cl(f) = 0.194994
    Cl(r) = -0.166268

Time = 14

smoothSolver:  Solving for Ux, Initial residual = 0.00369566, Final residual = 0.000285575, No Iterations 8
smoothSolver:  Solving for Uy, Initial residual = 0.0815497, Final residual = 0.00699016, No Iterations 7
smoothSolver:  Solving for Uz, Initial residual = 0.0957025, Final residual = 0.0083477, No Iterations 7
GAMG:  Solving for p, Initial residual = 0.0229906, Final residual = 0.000121183, No Iterations 4
time step continuity errors : sum local = 0.000264593, global = 6.14477e-06, cumulative = 0.000142829
smoothSolver:  Solving for omega, Initial residual = 0.000656076, Final residual = 5.05869e-05, No Iterations 3
smoothSolver:  Solving for k, Initial residual = 0.00514131, Final residual = 0.000442407, No Iterations 3
ExecutionTime = 8.82 s  ClockTime = 8 s

forceCoeffs forceCoeffs1 write:
    Cm    = 0.179902
    Cd    = 0.44145
    Cl    = 0.0343437
    Cl(f) = 0.197074
    Cl(r) = -0.16273

Time = 15

smoothSolver:  Solving for Ux, Initial residual = 0.00354437, Final residual = 0.000276052, No Iterations 8
smoothSolver:  Solving for Uy, Initial residual = 0.0762782, Final residual = 0.00662029, No Iterations 7
smoothSolver:  Solving for Uz, Initial residual = 0.0850603, Final residual = 0.00749273, No Iterations 7
GAMG:  Solving for p, Initial residual = 0.0224506, Final residual = 0.000121269, No Iterations 4
time step continuity errors : sum local = 0.00026167, global = 6.60309e-06, cumulative = 0.000149432
smoothSolver:  Solving for omega, Initial residual = 0.000617499, Final residual = 4.76887e-05, No Iterations 3
smoothSolver:  Solving for k, Initial residual = 0.00495577, Final residual = 0.000431985, No Iterations 3
ExecutionTime = 9.28 s  ClockTime = 9 s

forceCoeffs forceCoeffs1 write:
    Cm    = 0.180355
    Cd    = 0.438893
    Cl    = 0.0405035
    Cl(f) = 0.200606
    Cl(r) = -0.160103

Time = 16

smoothSolver:  Solving for Ux, Initial residual = 0.00338294, Final residual = 0.000264194, No Iterations 8
smoothSolver:  Solving for Uy, Initial residual = 0.0718274, Final residual = 0.00627934, No Iterations 7
smoothSolver:  Solving for Uz, Initial residual = 0.0770202, Final residual = 0.00679644, No Iterations 7
GAMG:  Solving for p, Initial residual = 0.0218283, Final residual = 0.000115874, No Iterations 4
time step continuity errors : sum local = 0.000248638, global = 6.83698e-06, cumulative = 0.000156269
smoothSolver:  Solving for omega, Initial residual = 0.000582457, Final residual = 4.47436e-05, No Iterations 3
smoothSolver:  Solving for k, Initial residual = 0.00477543, Final residual = 0.000422006, No Iterations 3
ExecutionTime = 9.75 s  ClockTime = 9 s

forceCoeffs forceCoeffs1 write:
    Cm    = 0.180774
    Cd    = 0.436598
    Cl    = 0.046425
    Cl(f) = 0.203987
    Cl(r) = -0.157562

Time = 17

smoothSolver:  Solving for Ux, Initial residual = 0.00322334, Final residual = 0.000251973, No Iterations 8
smoothSolver:  Solving for Uy, Initial residual = 0.0676618, Final residual = 0.0059495, No Iterations 7
smoothSolver:  Solving for Uz, Initial residual = 0.0709221, Final residual = 0.00621681, No Iterations 7
GAMG:  Solving for p, Initial residual = 0.0210489, Final residual = 0.000108073, No Iterations 4
time step continuity errors : sum local = 0.000231775, global = 6.10781e-06, cumulative = 0.000162377
smoothSolver:  Solving for omega, Initial residual = 0.000550932, Final residual = 4.19725e-05, No Iterations 3
smoothSolver:  Solving for k, Initial residual = 0.00463433, Final residual = 0.000410783, No Iterations 3
ExecutionTime = 10.22 s  ClockTime = 10 s

forceCoeffs forceCoeffs1 write:
    Cm    = 0.181154
    Cd    = 0.435089
    Cl    = 0.0510881
    Cl(f) = 0.206699
    Cl(r) = -0.15561

Time = 18

smoothSolver:  Solving for Ux, Initial residual = 0.00306808, Final residual = 0.000240069, No Iterations 8
smoothSolver:  Solving for Uy, Initial residual = 0.0638853, Final residual = 0.00562092, No Iterations 7
smoothSolver:  Solving for Uz, Initial residual = 0.0660501, Final residual = 0.00577809, No Iterations 7
GAMG:  Solving for p, Initial residual = 0.0202095, Final residual = 9.96854e-05, No Iterations 4
time step continuity errors : sum local = 0.000214162, global = 4.32365e-06, cumulative = 0.000166701
smoothSolver:  Solving for omega, Initial residual = 0.000524387, Final residual = 3.97131e-05, No Iterations 3
smoothSolver:  Solving for k, Initial residual = 0.00452159, Final residual = 0.00040023, No Iterations 3
ExecutionTime = 10.69 s  ClockTime = 10 s

forceCoeffs forceCoeffs1 write:
    Cm    = 0.181292
    Cd    = 0.433886
    Cl    = 0.0536316
    Cl(f) = 0.208108
    Cl(r) = -0.154476

Time = 19

smoothSolver:  Solving for Ux, Initial residual = 0.00291098, Final residual = 0.000228006, No Iterations 8
smoothSolver:  Solving for Uy, Initial residual = 0.0602388, Final residual = 0.00530089, No Iterations 7
smoothSolver:  Solving for Uz, Initial residual = 0.0626873, Final residual = 0.00551321, No Iterations 7
GAMG:  Solving for p, Initial residual = 0.0195311, Final residual = 9.4195e-05, No Iterations 4
time step continuity errors : sum local = 0.000202587, global = 2.81682e-06, cumulative = 0.000169518
smoothSolver:  Solving for omega, Initial residual = 0.000497353, Final residual = 3.75669e-05, No Iterations 3
smoothSolver:  Solving for k, Initial residual = 0.0043918, Final residual = 0.000388321, No Iterations 3
ExecutionTime = 11.16 s  ClockTime = 11 s

forceCoeffs forceCoeffs1 write:
    Cm    = 0.181216
    Cd    = 0.432614
    Cl    = 0.0541708
    Cl(f) = 0.208302
    Cl(r) = -0.154131

Time = 20

smoothSolver:  Solving for Ux, Initial residual = 0.00276864, Final residual = 0.000218257, No Iterations 8
smoothSolver:  Solving for Uy, Initial residual = 0.0567538, Final residual = 0.00501191, No Iterations 7
smoothSolver:  Solving for Uz, Initial residual = 0.0602385, Final residual = 0.00534179, No Iterations 7
GAMG:  Solving for p, Initial residual = 0.0190075, Final residual = 9.1749e-05, No Iterations 4
time step continuity errors : sum local = 0.000197313, global = 1.98425e-06, cumulative = 0.000171502
smoothSolver:  Solving for omega, Initial residual = 0.00047226, Final residual = 3.57281e-05, No Iterations 3
smoothSolver:  Solving for k, Initial residual = 0.0042925, Final residual = 0.000379239, No Iterations 3
ExecutionTime = 11.62 s  ClockTime = 11 s

forceCoeffs forceCoeffs1 write:
    Cm    = 0.181097
    Cd    = 0.431598
    Cl    = 0.0531656
    Cl(f) = 0.207679
    Cl(r) = -0.154514

Time = 21

smoothSolver:  Solving for Ux, Initial residual = 0.00264984, Final residual = 0.000211594, No Iterations 8
smoothSolver:  Solving for Uy, Initial residual = 0.053463, Final residual = 0.00476175, No Iterations 7
smoothSolver:  Solving for Uz, Initial residual = 0.0583709, Final residual = 0.00521702, No Iterations 7
GAMG:  Solving for p, Initial residual = 0.0183066, Final residual = 9.22679e-05, No Iterations 4
time step continuity errors : sum local = 0.000197688, global = 3.01947e-06, cumulative = 0.000174521
smoothSolver:  Solving for omega, Initial residual = 0.000449248, Final residual = 3.38655e-05, No Iterations 3
smoothSolver:  Solving for k, Initial residual = 0.00420586, Final residual = 0.000369028, No Iterations 3
ExecutionTime = 12.09 s  ClockTime = 12 s

forceCoeffs forceCoeffs1 write:
    Cm    = 0.181028
    Cd    = 0.431156
    Cl    = 0.0515731
    Cl(f) = 0.206814
    Cl(r) = -0.155241

Time = 22

smoothSolver:  Solving for Ux, Initial residual = 0.00254357, Final residual = 0.000206468, No Iterations 8
smoothSolver:  Solving for Uy, Initial residual = 0.0504939, Final residual = 0.00458177, No Iterations 7
smoothSolver:  Solving for Uz, Initial residual = 0.0558367, Final residual = 0.00505925, No Iterations 7
GAMG:  Solving for p, Initial residual = 0.0176089, Final residual = 9.15591e-05, No Iterations 4
time step continuity errors : sum local = 0.000195277, global = 5.03399e-06, cumulative = 0.000179555
smoothSolver:  Solving for omega, Initial residual = 0.000423726, Final residual = 3.20321e-05, No Iterations 3
smoothSolver:  Solving for k, Initial residual = 0.00407291, Final residual = 0.000357048, No Iterations 3
ExecutionTime = 12.56 s  ClockTime = 12 s

forceCoeffs forceCoeffs1 write:
    Cm    = 0.180289
    Cd    = 0.430625
    Cl    = 0.0506447
    Cl(f) = 0.205612
    Cl(r) = -0.154967

Time = 23

smoothSolver:  Solving for Ux, Initial residual = 0.00244022, Final residual = 0.000200612, No Iterations 8
smoothSolver:  Solving for Uy, Initial residual = 0.0479026, Final residual = 0.00445317, No Iterations 7
smoothSolver:  Solving for Uz, Initial residual = 0.0531584, Final residual = 0.00486524, No Iterations 7
GAMG:  Solving for p, Initial residual = 0.0168262, Final residual = 8.74185e-05, No Iterations 4
time step continuity errors : sum local = 0.000185276, global = 6.62654e-06, cumulative = 0.000186182
smoothSolver:  Solving for omega, Initial residual = 0.000399365, Final residual = 3.02908e-05, No Iterations 3
smoothSolver:  Solving for k, Initial residual = 0.00390713, Final residual = 0.000346311, No Iterations 3
ExecutionTime = 13.02 s  ClockTime = 13 s

forceCoeffs forceCoeffs1 write:
    Cm    = 0.178812
    Cd    = 0.429661
    Cl    = 0.0507702
    Cl(f) = 0.204198
    Cl(r) = -0.153427

Time = 24

smoothSolver:  Solving for Ux, Initial residual = 0.0023423, Final residual = 0.000194015, No Iterations 8
smoothSolver:  Solving for Uy, Initial residual = 0.0459048, Final residual = 0.00432984, No Iterations 7
smoothSolver:  Solving for Uz, Initial residual = 0.0502805, Final residual = 0.00465573, No Iterations 7
GAMG:  Solving for p, Initial residual = 0.0161023, Final residual = 8.06872e-05, No Iterations 4
time step continuity errors : sum local = 0.000169863, global = 6.82916e-06, cumulative = 0.000193011
smoothSolver:  Solving for omega, Initial residual = 0.000376996, Final residual = 2.88427e-05, No Iterations 3
smoothSolver:  Solving for k, Initial residual = 0.0037555, Final residual = 0.000336405, No Iterations 3
ExecutionTime = 13.49 s  ClockTime = 13 s

forceCoeffs forceCoeffs1 write:
    Cm    = 0.176691
    Cd    = 0.42805
    Cl    = 0.0516893
    Cl(f) = 0.202536
    Cl(r) = -0.150847

Time = 25

smoothSolver:  Solving for Ux, Initial residual = 0.00224667, Final residual = 0.00018571, No Iterations 8
smoothSolver:  Solving for Uy, Initial residual = 0.0443113, Final residual = 0.004143, No Iterations 7
smoothSolver:  Solving for Uz, Initial residual = 0.0475139, Final residual = 0.00439947, No Iterations 7
GAMG:  Solving for p, Initial residual = 0.0154893, Final residual = 7.36995e-05, No Iterations 4
time step continuity errors : sum local = 0.000154074, global = 5.19274e-06, cumulative = 0.000198204
smoothSolver:  Solving for omega, Initial residual = 0.000360797, Final residual = 2.75963e-05, No Iterations 3
smoothSolver:  Solving for k, Initial residual = 0.00367416, Final residual = 0.000328062, No Iterations 3
ExecutionTime = 13.96 s  ClockTime = 14 s

forceCoeffs forceCoeffs1 write:
    Cm    = 0.174224
    Cd    = 0.425922
    Cl    = 0.0534152
    Cl(f) = 0.200932
    Cl(r) = -0.147517

Time = 26

smoothSolver:  Solving for Ux, Initial residual = 0.00215819, Final residual = 0.000177461, No Iterations 8
smoothSolver:  Solving for Uy, Initial residual = 0.0428546, Final residual = 0.00394909, No Iterations 7
smoothSolver:  Solving for Uz, Initial residual = 0.0448009, Final residual = 0.004113, No Iterations 7
GAMG:  Solving for p, Initial residual = 0.0149629, Final residual = 6.71387e-05, No Iterations 4
time step continuity errors : sum local = 0.000139312, global = 2.52551e-06, cumulative = 0.000200729
smoothSolver:  Solving for omega, Initial residual = 0.000342963, Final residual = 2.64493e-05, No Iterations 3
smoothSolver:  Solving for k, Initial residual = 0.00356645, Final residual = 0.000319849, No Iterations 3
ExecutionTime = 14.43 s  ClockTime = 14 s

forceCoeffs forceCoeffs1 write:
    Cm    = 0.172049
    Cd    = 0.423867
    Cl    = 0.0552863
    Cl(f) = 0.199692
    Cl(r) = -0.144406

Time = 27

smoothSolver:  Solving for Ux, Initial residual = 0.00204251, Final residual = 0.000168122, No Iterations 8
smoothSolver:  Solving for Uy, Initial residual = 0.0414088, Final residual = 0.00376691, No Iterations 7
smoothSolver:  Solving for Uz, Initial residual = 0.04202, Final residual = 0.00380671, No Iterations 7
GAMG:  Solving for p, Initial residual = 0.0144685, Final residual = 6.43284e-05, No Iterations 4
time step continuity errors : sum local = 0.000132433, global = 1.38215e-06, cumulative = 0.000202112
smoothSolver:  Solving for omega, Initial residual = 0.000325269, Final residual = 2.53503e-05, No Iterations 3
smoothSolver:  Solving for k, Initial residual = 0.00346795, Final residual = 0.000314354, No Iterations 3
ExecutionTime = 14.9 s  ClockTime = 15 s

forceCoeffs forceCoeffs1 write:
    Cm    = 0.170328
    Cd    = 0.42205
    Cl    = 0.0569751
    Cl(f) = 0.198815
    Cl(r) = -0.14184

Time = 28

smoothSolver:  Solving for Ux, Initial residual = 0.00193746, Final residual = 0.00015872, No Iterations 8
smoothSolver:  Solving for Uy, Initial residual = 0.039369, Final residual = 0.00353807, No Iterations 7
smoothSolver:  Solving for Uz, Initial residual = 0.039247, Final residual = 0.00349789, No Iterations 7
GAMG:  Solving for p, Initial residual = 0.0139482, Final residual = 6.24918e-05, No Iterations 4
time step continuity errors : sum local = 0.000127647, global = 5.35432e-07, cumulative = 0.000202647
smoothSolver:  Solving for omega, Initial residual = 0.000310149, Final residual = 2.43745e-05, No Iterations 3
smoothSolver:  Solving for k, Initial residual = 0.00339654, Final residual = 0.00030973, No Iterations 3
ExecutionTime = 15.36 s  ClockTime = 15 s

forceCoeffs forceCoeffs1 write:
    Cm    = 0.168878
    Cd    = 0.420167
    Cl    = 0.0583811
    Cl(f) = 0.198068
    Cl(r) = -0.139687

Time = 29

smoothSolver:  Solving for Ux, Initial residual = 0.00183661, Final residual = 0.000150147, No Iterations 8
smoothSolver:  Solving for Uy, Initial residual = 0.0370079, Final residual = 0.00327887, No Iterations 7
smoothSolver:  Solving for Uz, Initial residual = 0.0368899, Final residual = 0.00324133, No Iterations 7
GAMG:  Solving for p, Initial residual = 0.0134462, Final residual = 6.18872e-05, No Iterations 4
time step continuity errors : sum local = 0.00012553, global = -4.9412e-07, cumulative = 0.000202153
smoothSolver:  Solving for omega, Initial residual = 0.000298128, Final residual = 2.34904e-05, No Iterations 3
smoothSolver:  Solving for k, Initial residual = 0.00334436, Final residual = 0.00030466, No Iterations 3
ExecutionTime = 15.81 s  ClockTime = 15 s

forceCoeffs forceCoeffs1 write:
    Cm    = 0.167608
    Cd    = 0.418351
    Cl    = 0.0598516
    Cl(f) = 0.197534
    Cl(r) = -0.137682

Time = 30

smoothSolver:  Solving for Ux, Initial residual = 0.00174447, Final residual = 0.00014185, No Iterations 8
smoothSolver:  Solving for Uy, Initial residual = 0.0346651, Final residual = 0.0030472, No Iterations 7
smoothSolver:  Solving for Uz, Initial residual = 0.0349428, Final residual = 0.00303677, No Iterations 7
GAMG:  Solving for p, Initial residual = 0.012982, Final residual = 6.23653e-05, No Iterations 4
time step continuity errors : sum local = 0.000125638, global = -1.36222e-06, cumulative = 0.000200791
smoothSolver:  Solving for omega, Initial residual = 0.000287, Final residual = 2.26336e-05, No Iterations 3
smoothSolver:  Solving for k, Initial residual = 0.00328316, Final residual = 0.000299358, No Iterations 3
ExecutionTime = 16.3 s  ClockTime = 16 s

forceCoeffs forceCoeffs1 write:
    Cm    = 0.166476
    Cd    = 0.416676
    Cl    = 0.0615122
    Cl(f) = 0.197232
    Cl(r) = -0.13572

Time = 31

smoothSolver:  Solving for Ux, Initial residual = 0.0016538, Final residual = 0.000133269, No Iterations 8
smoothSolver:  Solving for Uy, Initial residual = 0.0325594, Final residual = 0.00284873, No Iterations 7
smoothSolver:  Solving for Uz, Initial residual = 0.0332524, Final residual = 0.00285438, No Iterations 7
GAMG:  Solving for p, Initial residual = 0.0125617, Final residual = 6.07273e-05, No Iterations 4
time step continuity errors : sum local = 0.000121502, global = -1.91363e-06, cumulative = 0.000198877
smoothSolver:  Solving for omega, Initial residual = 0.000275529, Final residual = 2.17358e-05, No Iterations 3
smoothSolver:  Solving for k, Initial residual = 0.00319942, Final residual = 0.000293337, No Iterations 3
ExecutionTime = 16.75 s  ClockTime = 16 s

forceCoeffs forceCoeffs1 write:
    Cm    = 0.165541
    Cd    = 0.415215
    Cl    = 0.063139
    Cl(f) = 0.19711
    Cl(r) = -0.133971

Time = 32

smoothSolver:  Solving for Ux, Initial residual = 0.00156292, Final residual = 0.000124678, No Iterations 8
smoothSolver:  Solving for Uy, Initial residual = 0.030707, Final residual = 0.00267725, No Iterations 7
smoothSolver:  Solving for Uz, Initial residual = 0.0316274, Final residual = 0.00268027, No Iterations 7
GAMG:  Solving for p, Initial residual = 0.0121494, Final residual = 5.77105e-05, No Iterations 4
time step continuity errors : sum local = 0.000114605, global = -1.96912e-06, cumulative = 0.000196908
smoothSolver:  Solving for omega, Initial residual = 0.000264961, Final residual = 2.08783e-05, No Iterations 3
smoothSolver:  Solving for k, Initial residual = 0.00310748, Final residual = 0.000287949, No Iterations 3
ExecutionTime = 17.22 s  ClockTime = 17 s

forceCoeffs forceCoeffs1 write:
    Cm    = 0.164781
    Cd    = 0.413949
    Cl    = 0.0643808
    Cl(f) = 0.196972
    Cl(r) = -0.132591

Time = 33

smoothSolver:  Solving for Ux, Initial residual = 0.00147513, Final residual = 0.000116578, No Iterations 8
smoothSolver:  Solving for Uy, Initial residual = 0.0293888, Final residual = 0.00254146, No Iterations 7
smoothSolver:  Solving for Uz, Initial residual = 0.0299891, Final residual = 0.00253031, No Iterations 7
GAMG:  Solving for p, Initial residual = 0.011763, Final residual = 5.47588e-05, No Iterations 4
time step continuity errors : sum local = 0.000107952, global = -1.57684e-06, cumulative = 0.000195331
smoothSolver:  Solving for omega, Initial residual = 0.00025417, Final residual = 1.99967e-05, No Iterations 3
smoothSolver:  Solving for k, Initial residual = 0.00300647, Final residual = 0.000282304, No Iterations 3
ExecutionTime = 17.68 s  ClockTime = 17 s

forceCoeffs forceCoeffs1 write:
    Cm    = 0.164253
    Cd    = 0.413067
    Cl    = 0.065332
    Cl(f) = 0.196919
    Cl(r) = -0.131587

Time = 34

smoothSolver:  Solving for Ux, Initial residual = 0.00139146, Final residual = 0.000109313, No Iterations 8
smoothSolver:  Solving for Uy, Initial residual = 0.0285079, Final residual = 0.00244381, No Iterations 7
smoothSolver:  Solving for Uz, Initial residual = 0.028534, Final residual = 0.002378, No Iterations 7
GAMG:  Solving for p, Initial residual = 0.0113785, Final residual = 5.13802e-05, No Iterations 4
time step continuity errors : sum local = 0.000100565, global = -6.8301e-07, cumulative = 0.000194648
smoothSolver:  Solving for omega, Initial residual = 0.000243231, Final residual = 1.90587e-05, No Iterations 3
smoothSolver:  Solving for k, Initial residual = 0.00290687, Final residual = 0.000274556, No Iterations 3
ExecutionTime = 18.14 s  ClockTime = 18 s

forceCoeffs forceCoeffs1 write:
    Cm    = 0.163806
    Cd    = 0.412431
    Cl    = 0.0660316
    Cl(f) = 0.196822
    Cl(r) = -0.13079

Time = 35

smoothSolver:  Solving for Ux, Initial residual = 0.00132548, Final residual = 0.000102309, No Iterations 8
smoothSolver:  Solving for Uy, Initial residual = 0.0278758, Final residual = 0.00236377, No Iterations 7
smoothSolver:  Solving for Uz, Initial residual = 0.0272254, Final residual = 0.00221135, No Iterations 7
GAMG:  Solving for p, Initial residual = 0.0110613, Final residual = 4.91958e-05, No Iterations 4
time step continuity errors : sum local = 9.56843e-05, global = 4.97228e-07, cumulative = 0.000195145
smoothSolver:  Solving for omega, Initial residual = 0.000234794, Final residual = 1.81516e-05, No Iterations 3
smoothSolver:  Solving for k, Initial residual = 0.00283704, Final residual = 0.00026624, No Iterations 3
ExecutionTime = 18.61 s  ClockTime = 18 s

forceCoeffs forceCoeffs1 write:
    Cm    = 0.163478
    Cd    = 0.411982
    Cl    = 0.0665583
    Cl(f) = 0.196757
    Cl(r) = -0.130199

Time = 36

smoothSolver:  Solving for Ux, Initial residual = 0.00127066, Final residual = 9.59434e-05, No Iterations 8
smoothSolver:  Solving for Uy, Initial residual = 0.0273567, Final residual = 0.00227611, No Iterations 7
smoothSolver:  Solving for Uz, Initial residual = 0.0260111, Final residual = 0.00206967, No Iterations 7
GAMG:  Solving for p, Initial residual = 0.0107465, Final residual = 4.95436e-05, No Iterations 4
time step continuity errors : sum local = 9.58444e-05, global = 1.50637e-06, cumulative = 0.000196652
smoothSolver:  Solving for omega, Initial residual = 0.000225058, Final residual = 1.72122e-05, No Iterations 3
smoothSolver:  Solving for k, Initial residual = 0.0027652, Final residual = 0.000258287, No Iterations 3
ExecutionTime = 19.08 s  ClockTime = 19 s

forceCoeffs forceCoeffs1 write:
    Cm    = 0.16327
    Cd    = 0.411722
    Cl    = 0.0669295
    Cl(f) = 0.196735
    Cl(r) = -0.129805

Time = 37

smoothSolver:  Solving for Ux, Initial residual = 0.00121688, Final residual = 0.000120636, No Iterations 7
smoothSolver:  Solving for Uy, Initial residual = 0.0267045, Final residual = 0.00218515, No Iterations 7
smoothSolver:  Solving for Uz, Initial residual = 0.0247269, Final residual = 0.00195393, No Iterations 7
GAMG:  Solving for p, Initial residual = 0.0104839, Final residual = 5.17168e-05, No Iterations 4
time step continuity errors : sum local = 9.96441e-05, global = 2.67797e-06, cumulative = 0.00019933
smoothSolver:  Solving for omega, Initial residual = 0.000214979, Final residual = 1.63459e-05, No Iterations 3
smoothSolver:  Solving for k, Initial residual = 0.00269532, Final residual = 0.000250595, No Iterations 3
ExecutionTime = 19.54 s  ClockTime = 19 s

forceCoeffs forceCoeffs1 write:
    Cm    = 0.163261
    Cd    = 0.411625
    Cl    = 0.0670561
    Cl(f) = 0.196789
    Cl(r) = -0.129733

Time = 38

smoothSolver:  Solving for Ux, Initial residual = 0.00116894, Final residual = 0.000115117, No Iterations 7
smoothSolver:  Solving for Uy, Initial residual = 0.0258123, Final residual = 0.0020935, No Iterations 7
smoothSolver:  Solving for Uz, Initial residual = 0.023392, Final residual = 0.00185061, No Iterations 7
GAMG:  Solving for p, Initial residual = 0.010174, Final residual = 5.21781e-05, No Iterations 4
time step continuity errors : sum local = 0.00010019, global = 2.75939e-06, cumulative = 0.000202089
smoothSolver:  Solving for omega, Initial residual = 0.000204067, Final residual = 1.54647e-05, No Iterations 3
smoothSolver:  Solving for k, Initial residual = 0.00262019, Final residual = 0.000243403, No Iterations 3
ExecutionTime = 20.02 s  ClockTime = 20 s

forceCoeffs forceCoeffs1 write:
    Cm    = 0.163421
    Cd    = 0.411504
    Cl    = 0.0666143
    Cl(f) = 0.196728
    Cl(r) = -0.130114

Time = 39

smoothSolver:  Solving for Ux, Initial residual = 0.0011191, Final residual = 0.000110824, No Iterations 7
smoothSolver:  Solving for Uy, Initial residual = 0.024821, Final residual = 0.00200109, No Iterations 7
smoothSolver:  Solving for Uz, Initial residual = 0.0220586, Final residual = 0.00175625, No Iterations 7
GAMG:  Solving for p, Initial residual = 0.00981856, Final residual = 5.07977e-05, No Iterations 4
time step continuity errors : sum local = 9.72897e-05, global = 1.84954e-06, cumulative = 0.000203939
smoothSolver:  Solving for omega, Initial residual = 0.000193912, Final residual = 1.46817e-05, No Iterations 3
smoothSolver:  Solving for k, Initial residual = 0.00253582, Final residual = 0.000236871, No Iterations 3
ExecutionTime = 20.49 s  ClockTime = 20 s

forceCoeffs forceCoeffs1 write:
    Cm    = 0.163652
    Cd    = 0.411206
    Cl    = 0.0657728
    Cl(f) = 0.196539
    Cl(r) = -0.130766

Time = 40

smoothSolver:  Solving for Ux, Initial residual = 0.00107694, Final residual = 0.000107276, No Iterations 7
smoothSolver:  Solving for Uy, Initial residual = 0.0239183, Final residual = 0.00192479, No Iterations 7
smoothSolver:  Solving for Uz, Initial residual = 0.021027, Final residual = 0.00168132, No Iterations 7
GAMG:  Solving for p, Initial residual = 0.0094396, Final residual = 4.98149e-05, No Iterations 4
time step continuity errors : sum local = 9.52135e-05, global = 1.42781e-06, cumulative = 0.000205366
smoothSolver:  Solving for omega, Initial residual = 0.000183664, Final residual = 1.39135e-05, No Iterations 3
smoothSolver:  Solving for k, Initial residual = 0.00245486, Final residual = 0.000231109, No Iterations 3
ExecutionTime = 20.95 s  ClockTime = 21 s

forceCoeffs forceCoeffs1 write:
    Cm    = 0.163911
    Cd    = 0.410772
    Cl    = 0.0647591
    Cl(f) = 0.19629
    Cl(r) = -0.131531

Time = 41

smoothSolver:  Solving for Ux, Initial residual = 0.00104515, Final residual = 0.000104448, No Iterations 7
smoothSolver:  Solving for Uy, Initial residual = 0.0231148, Final residual = 0.00185652, No Iterations 7
smoothSolver:  Solving for Uz, Initial residual = 0.0202027, Final residual = 0.00161466, No Iterations 7
GAMG:  Solving for p, Initial residual = 0.00910381, Final residual = 4.89243e-05, No Iterations 4
time step continuity errors : sum local = 9.33626e-05, global = 1.4431e-06, cumulative = 0.000206809
smoothSolver:  Solving for omega, Initial residual = 0.000174021, Final residual = 1.32221e-05, No Iterations 3
smoothSolver:  Solving for k, Initial residual = 0.00239151, Final residual = 0.00022588, No Iterations 3
ExecutionTime = 21.42 s  ClockTime = 21 s

forceCoeffs forceCoeffs1 write:
    Cm    = 0.164056
    Cd    = 0.410199
    Cl    = 0.0638651
    Cl(f) = 0.195989
    Cl(r) = -0.132124

Time = 42

smoothSolver:  Solving for Ux, Initial residual = 0.0010142, Final residual = 7.71857e-05, No Iterations 8
smoothSolver:  Solving for Uy, Initial residual = 0.022241, Final residual = 0.00178292, No Iterations 7
smoothSolver:  Solving for Uz, Initial residual = 0.0195933, Final residual = 0.0015614, No Iterations 7
GAMG:  Solving for p, Initial residual = 0.00877491, Final residual = 4.74606e-05, No Iterations 4
time step continuity errors : sum local = 9.04723e-05, global = 1.00992e-06, cumulative = 0.000207819
smoothSolver:  Solving for omega, Initial residual = 0.000167201, Final residual = 1.26656e-05, No Iterations 3
smoothSolver:  Solving for k, Initial residual = 0.00235184, Final residual = 0.000220862, No Iterations 3
ExecutionTime = 21.88 s  ClockTime = 22 s

forceCoeffs forceCoeffs1 write:
    Cm    = 0.16405
    Cd    = 0.409574
    Cl    = 0.0631066
    Cl(f) = 0.195603
    Cl(r) = -0.132497

Time = 43

smoothSolver:  Solving for Ux, Initial residual = 0.000985143, Final residual = 7.54119e-05, No Iterations 8
smoothSolver:  Solving for Uy, Initial residual = 0.0213196, Final residual = 0.00172039, No Iterations 7
smoothSolver:  Solving for Uz, Initial residual = 0.01899, Final residual = 0.00151885, No Iterations 7
GAMG:  Solving for p, Initial residual = 0.00847034, Final residual = 4.52742e-05, No Iterations 4
time step continuity errors : sum local = 8.62657e-05, global = 1.45672e-07, cumulative = 0.000207965
smoothSolver:  Solving for omega, Initial residual = 0.00016115, Final residual = 1.2213e-05, No Iterations 3
smoothSolver:  Solving for k, Initial residual = 0.00232227, Final residual = 0.000216555, No Iterations 3
ExecutionTime = 22.35 s  ClockTime = 22 s

forceCoeffs forceCoeffs1 write:
    Cm    = 0.163909
    Cd    = 0.408895
    Cl    = 0.062718
    Cl(f) = 0.195268
    Cl(r) = -0.13255

Time = 44

smoothSolver:  Solving for Ux, Initial residual = 0.000956092, Final residual = 7.38543e-05, No Iterations 8
smoothSolver:  Solving for Uy, Initial residual = 0.0203308, Final residual = 0.00165974, No Iterations 7
smoothSolver:  Solving for Uz, Initial residual = 0.0183917, Final residual = 0.00148795, No Iterations 7
GAMG:  Solving for p, Initial residual = 0.0081697, Final residual = 4.30507e-05, No Iterations 4
time step continuity errors : sum local = 8.20002e-05, global = -1.21886e-06, cumulative = 0.000206746
smoothSolver:  Solving for omega, Initial residual = 0.00015588, Final residual = 1.18311e-05, No Iterations 3
smoothSolver:  Solving for k, Initial residual = 0.00228471, Final residual = 0.000212827, No Iterations 3
ExecutionTime = 22.81 s  ClockTime = 22 s

forceCoeffs forceCoeffs1 write:
    Cm    = 0.163654
    Cd    = 0.408322
    Cl    = 0.062573
    Cl(f) = 0.194941
    Cl(r) = -0.132368

Time = 45

smoothSolver:  Solving for Ux, Initial residual = 0.000921626, Final residual = 7.26162e-05, No Iterations 8
smoothSolver:  Solving for Uy, Initial residual = 0.0193606, Final residual = 0.00160066, No Iterations 7
smoothSolver:  Solving for Uz, Initial residual = 0.0177376, Final residual = 0.0014669, No Iterations 7
GAMG:  Solving for p, Initial residual = 0.0078491, Final residual = 4.14961e-05, No Iterations 4
time step continuity errors : sum local = 7.89987e-05, global = -1.65603e-06, cumulative = 0.00020509
smoothSolver:  Solving for omega, Initial residual = 0.000150688, Final residual = 1.14289e-05, No Iterations 3
smoothSolver:  Solving for k, Initial residual = 0.00224327, Final residual = 0.000208886, No Iterations 3
ExecutionTime = 23.27 s  ClockTime = 23 s

forceCoeffs forceCoeffs1 write:
    Cm    = 0.16335
    Cd    = 0.407965
    Cl    = 0.0627587
    Cl(f) = 0.194729
    Cl(r) = -0.131971

Time = 46

smoothSolver:  Solving for Ux, Initial residual = 0.000886809, Final residual = 7.14539e-05, No Iterations 8
smoothSolver:  Solving for Uy, Initial residual = 0.0184374, Final residual = 0.00154504, No Iterations 7
smoothSolver:  Solving for Uz, Initial residual = 0.0170267, Final residual = 0.00143649, No Iterations 7
GAMG:  Solving for p, Initial residual = 0.00750965, Final residual = 4.00497e-05, No Iterations 4
time step continuity errors : sum local = 7.61787e-05, global = -1.66236e-06, cumulative = 0.000203428
smoothSolver:  Solving for omega, Initial residual = 0.000145723, Final residual = 1.10498e-05, No Iterations 3
smoothSolver:  Solving for k, Initial residual = 0.00219095, Final residual = 0.000204287, No Iterations 3
ExecutionTime = 23.73 s  ClockTime = 23 s

forceCoeffs forceCoeffs1 write:
    Cm    = 0.163097
    Cd    = 0.407929
    Cl    = 0.0632384
    Cl(f) = 0.194717
    Cl(r) = -0.131478

Time = 47

smoothSolver:  Solving for Ux, Initial residual = 0.000855669, Final residual = 7.00741e-05, No Iterations 8
smoothSolver:  Solving for Uy, Initial residual = 0.0176744, Final residual = 0.00149541, No Iterations 7
smoothSolver:  Solving for Uz, Initial residual = 0.0163912, Final residual = 0.00139786, No Iterations 7
GAMG:  Solving for p, Initial residual = 0.00716244, Final residual = 3.85705e-05, No Iterations 4
time step continuity errors : sum local = 7.32818e-05, global = -1.62939e-06, cumulative = 0.000201798
smoothSolver:  Solving for omega, Initial residual = 0.000140602, Final residual = 1.06829e-05, No Iterations 3
smoothSolver:  Solving for k, Initial residual = 0.00212419, Final residual = 0.000199419, No Iterations 3
ExecutionTime = 24.2 s  ClockTime = 24 s

forceCoeffs forceCoeffs1 write:
    Cm    = 0.162929
    Cd    = 0.408245
    Cl    = 0.0638819
    Cl(f) = 0.19487
    Cl(r) = -0.130988

Time = 48

smoothSolver:  Solving for Ux, Initial residual = 0.000829682, Final residual = 6.85566e-05, No Iterations 8
smoothSolver:  Solving for Uy, Initial residual = 0.016957, Final residual = 0.00144036, No Iterations 7
smoothSolver:  Solving for Uz, Initial residual = 0.0158098, Final residual = 0.00136048, No Iterations 7
GAMG:  Solving for p, Initial residual = 0.00685332, Final residual = 3.6924e-05, No Iterations 4
time step continuity errors : sum local = 7.00697e-05, global = -1.60693e-06, cumulative = 0.000200191
smoothSolver:  Solving for omega, Initial residual = 0.000135999, Final residual = 1.0342e-05, No Iterations 3
smoothSolver:  Solving for k, Initial residual = 0.00205175, Final residual = 0.000193755, No Iterations 3
ExecutionTime = 24.66 s  ClockTime = 24 s

forceCoeffs forceCoeffs1 write:
    Cm    = 0.162797
    Cd    = 0.40876
    Cl    = 0.0645865
    Cl(f) = 0.195091
    Cl(r) = -0.130504

Time = 49

smoothSolver:  Solving for Ux, Initial residual = 0.000810006, Final residual = 6.70918e-05, No Iterations 8
smoothSolver:  Solving for Uy, Initial residual = 0.0163335, Final residual = 0.00137872, No Iterations 7
smoothSolver:  Solving for Uz, Initial residual = 0.0152881, Final residual = 0.00131547, No Iterations 7
GAMG:  Solving for p, Initial residual = 0.00658784, Final residual = 3.51858e-05, No Iterations 4
time step continuity errors : sum local = 6.6688e-05, global = -1.71128e-06, cumulative = 0.00019848
smoothSolver:  Solving for omega, Initial residual = 0.000131286, Final residual = 9.99445e-06, No Iterations 3
smoothSolver:  Solving for k, Initial residual = 0.00197734, Final residual = 0.000187493, No Iterations 3
ExecutionTime = 25.13 s  ClockTime = 25 s

forceCoeffs forceCoeffs1 write:
    Cm    = 0.162651
    Cd    = 0.409433
    Cl    = 0.0653161
    Cl(f) = 0.195309
    Cl(r) = -0.129993

Time = 50

smoothSolver:  Solving for Ux, Initial residual = 0.000789708, Final residual = 6.54436e-05, No Iterations 8
smoothSolver:  Solving for Uy, Initial residual = 0.0157015, Final residual = 0.0013146, No Iterations 7
smoothSolver:  Solving for Uz, Initial residual = 0.014719, Final residual = 0.00126087, No Iterations 7
GAMG:  Solving for p, Initial residual = 0.00637106, Final residual = 3.33528e-05, No Iterations 4
time step continuity errors : sum local = 6.31436e-05, global = -1.92448e-06, cumulative = 0.000196556
smoothSolver:  Solving for omega, Initial residual = 0.00012709, Final residual = 9.68878e-06, No Iterations 3
smoothSolver:  Solving for k, Initial residual = 0.00190488, Final residual = 0.000181204, No Iterations 3
ExecutionTime = 25.6 s  ClockTime = 25 s

forceCoeffs forceCoeffs1 write:
    Cm    = 0.162449
    Cd    = 0.410123
    Cl    = 0.0660769
    Cl(f) = 0.195488
    Cl(r) = -0.129411

Time = 51

smoothSolver:  Solving for Ux, Initial residual = 0.000765496, Final residual = 6.3109e-05, No Iterations 8
smoothSolver:  Solving for Uy, Initial residual = 0.0150556, Final residual = 0.00124715, No Iterations 7
smoothSolver:  Solving for Uz, Initial residual = 0.0141611, Final residual = 0.00120343, No Iterations 7
GAMG:  Solving for p, Initial residual = 0.00617476, Final residual = 3.1427e-05, No Iterations 4
time step continuity errors : sum local = 5.94395e-05, global = -2.23012e-06, cumulative = 0.000194326
smoothSolver:  Solving for omega, Initial residual = 0.000122416, Final residual = 9.37699e-06, No Iterations 3
smoothSolver:  Solving for k, Initial residual = 0.00183159, Final residual = 0.000175261, No Iterations 3
ExecutionTime = 26.06 s  ClockTime = 26 s

forceCoeffs forceCoeffs1 write:
    Cm    = 0.162227
    Cd    = 0.410833
    Cl    = 0.0668876
    Cl(f) = 0.195671
    Cl(r) = -0.128783

Time = 52

smoothSolver:  Solving for Ux, Initial residual = 0.000738684, Final residual = 6.02889e-05, No Iterations 8
smoothSolver:  Solving for Uy, Initial residual = 0.0143798, Final residual = 0.00117515, No Iterations 7
smoothSolver:  Solving for Uz, Initial residual = 0.0135719, Final residual = 0.00114064, No Iterations 7
GAMG:  Solving for p, Initial residual = 0.00598623, Final residual = 2.95079e-05, No Iterations 4
time step continuity errors : sum local = 5.57512e-05, global = -2.39828e-06, cumulative = 0.000191927
smoothSolver:  Solving for omega, Initial residual = 0.000117744, Final residual = 9.07285e-06, No Iterations 3
smoothSolver:  Solving for k, Initial residual = 0.00175636, Final residual = 0.000169205, No Iterations 3
ExecutionTime = 26.54 s  ClockTime = 26 s

forceCoeffs forceCoeffs1 write:
    Cm    = 0.162001
    Cd    = 0.411531
    Cl    = 0.0676229
    Cl(f) = 0.195813
    Cl(r) = -0.12819

Time = 53

smoothSolver:  Solving for Ux, Initial residual = 0.000712803, Final residual = 5.69758e-05, No Iterations 8
smoothSolver:  Solving for Uy, Initial residual = 0.0137849, Final residual = 0.00110587, No Iterations 7
smoothSolver:  Solving for Uz, Initial residual = 0.0130719, Final residual = 0.00108669, No Iterations 7
GAMG:  Solving for p, Initial residual = 0.00582205, Final residual = 2.77434e-05, No Iterations 4
time step continuity errors : sum local = 5.23617e-05, global = -2.19002e-06, cumulative = 0.000189737
smoothSolver:  Solving for omega, Initial residual = 0.000112863, Final residual = 8.73963e-06, No Iterations 3
smoothSolver:  Solving for k, Initial residual = 0.00168132, Final residual = 0.000163259, No Iterations 3
ExecutionTime = 26.99 s  ClockTime = 27 s

forceCoeffs forceCoeffs1 write:
    Cm    = 0.161798
    Cd    = 0.412237
    Cl    = 0.0682912
    Cl(f) = 0.195944
    Cl(r) = -0.127652

Time = 54

smoothSolver:  Solving for Ux, Initial residual = 0.000683607, Final residual = 5.33196e-05, No Iterations 8
smoothSolver:  Solving for Uy, Initial residual = 0.0132634, Final residual = 0.00104497, No Iterations 7
smoothSolver:  Solving for Uz, Initial residual = 0.0126367, Final residual = 0.00103821, No Iterations 7
GAMG:  Solving for p, Initial residual = 0.00567709, Final residual = 2.62238e-05, No Iterations 4
time step continuity errors : sum local = 4.94412e-05, global = -1.79237e-06, cumulative = 0.000187945
smoothSolver:  Solving for omega, Initial residual = 0.000108182, Final residual = 8.42438e-06, No Iterations 3
smoothSolver:  Solving for k, Initial residual = 0.00160823, Final residual = 0.000157388, No Iterations 3
ExecutionTime = 27.46 s  ClockTime = 27 s

forceCoeffs forceCoeffs1 write:
    Cm    = 0.161629
    Cd    = 0.412918
    Cl    = 0.0688883
    Cl(f) = 0.196074
    Cl(r) = -0.127185

Time = 55

smoothSolver:  Solving for Ux, Initial residual = 0.000652954, Final residual = 4.95543e-05, No Iterations 8
smoothSolver:  Solving for Uy, Initial residual = 0.01279, Final residual = 0.000993701, No Iterations 7
smoothSolver:  Solving for Uz, Initial residual = 0.012265, Final residual = 0.000998882, No Iterations 7
GAMG:  Solving for p, Initial residual = 0.00553399, Final residual = 2.49669e-05, No Iterations 4
time step continuity errors : sum local = 4.70255e-05, global = -1.43739e-06, cumulative = 0.000186508
smoothSolver:  Solving for omega, Initial residual = 0.000103987, Final residual = 8.10477e-06, No Iterations 3
smoothSolver:  Solving for k, Initial residual = 0.00154008, Final residual = 0.000151629, No Iterations 3
ExecutionTime = 27.92 s  ClockTime = 28 s

forceCoeffs forceCoeffs1 write:
    Cm    = 0.161513
    Cd    = 0.413603
    Cl    = 0.0693627
    Cl(f) = 0.196194
    Cl(r) = -0.126832

Time = 56

smoothSolver:  Solving for Ux, Initial residual = 0.000620515, Final residual = 6.16449e-05, No Iterations 7
smoothSolver:  Solving for Uy, Initial residual = 0.0124186, Final residual = 0.000953813, No Iterations 7
smoothSolver:  Solving for Uz, Initial residual = 0.0119213, Final residual = 0.000968976, No Iterations 7
GAMG:  Solving for p, Initial residual = 0.00540148, Final residual = 2.396e-05, No Iterations 4
time step continuity errors : sum local = 4.50937e-05, global = -1.07026e-06, cumulative = 0.000185437
smoothSolver:  Solving for omega, Initial residual = 0.000100043, Final residual = 7.75824e-06, No Iterations 3
smoothSolver:  Solving for k, Initial residual = 0.00147841, Final residual = 0.000145857, No Iterations 3
ExecutionTime = 28.38 s  ClockTime = 28 s

forceCoeffs forceCoeffs1 write:
    Cm    = 0.161418
    Cd    = 0.414169
    Cl    = 0.0696912
    Cl(f) = 0.196263
    Cl(r) = -0.126572

Time = 57

smoothSolver:  Solving for Ux, Initial residual = 0.000592439, Final residual = 5.78974e-05, No Iterations 7
smoothSolver:  Solving for Uy, Initial residual = 0.0121101, Final residual = 0.000916826, No Iterations 7
smoothSolver:  Solving for Uz, Initial residual = 0.0115842, Final residual = 0.000934612, No Iterations 7
GAMG:  Solving for p, Initial residual = 0.00526405, Final residual = 2.31039e-05, No Iterations 4
time step continuity errors : sum local = 4.34663e-05, global = -7.70082e-07, cumulative = 0.000184667
smoothSolver:  Solving for omega, Initial residual = 9.61028e-05, Final residual = 7.39241e-06, No Iterations 3
smoothSolver:  Solving for k, Initial residual = 0.00142079, Final residual = 0.000139753, No Iterations 3
ExecutionTime = 28.85 s  ClockTime = 29 s

forceCoeffs forceCoeffs1 write:
    Cm    = 0.161273
    Cd    = 0.414581
    Cl    = 0.069852
    Cl(f) = 0.196199
    Cl(r) = -0.126347

Time = 58

smoothSolver:  Solving for Ux, Initial residual = 0.000568899, Final residual = 5.47092e-05, No Iterations 7
smoothSolver:  Solving for Uy, Initial residual = 0.0118529, Final residual = 0.000887657, No Iterations 7
smoothSolver:  Solving for Uz, Initial residual = 0.0112825, Final residual = 0.000894364, No Iterations 7
GAMG:  Solving for p, Initial residual = 0.00514076, Final residual = 2.27462e-05, No Iterations 4
time step continuity errors : sum local = 4.27933e-05, global = -4.40443e-07, cumulative = 0.000184227
smoothSolver:  Solving for omega, Initial residual = 9.27574e-05, Final residual = 7.04283e-06, No Iterations 3
smoothSolver:  Solving for k, Initial residual = 0.00136708, Final residual = 0.000133438, No Iterations 3
ExecutionTime = 29.31 s  ClockTime = 29 s

forceCoeffs forceCoeffs1 write:
    Cm    = 0.161088
    Cd    = 0.414798
    Cl    = 0.0699334
    Cl(f) = 0.196054
    Cl(r) = -0.126121

Time = 59

smoothSolver:  Solving for Ux, Initial residual = 0.000549334, Final residual = 5.23128e-05, No Iterations 7
smoothSolver:  Solving for Uy, Initial residual = 0.0116574, Final residual = 0.000864868, No Iterations 7
smoothSolver:  Solving for Uz, Initial residual = 0.0110371, Final residual = 0.000852353, No Iterations 7
GAMG:  Solving for p, Initial residual = 0.00502597, Final residual = 2.28626e-05, No Iterations 4
time step continuity errors : sum local = 4.30219e-05, global = -1.46174e-07, cumulative = 0.000184081
smoothSolver:  Solving for omega, Initial residual = 8.97336e-05, Final residual = 6.75165e-06, No Iterations 3
smoothSolver:  Solving for k, Initial residual = 0.00132103, Final residual = 0.000127485, No Iterations 3
ExecutionTime = 29.77 s  ClockTime = 29 s

forceCoeffs forceCoeffs1 write:
    Cm    = 0.160845
    Cd    = 0.414877
    Cl    = 0.06999
    Cl(f) = 0.19584
    Cl(r) = -0.12585

Time = 60

smoothSolver:  Solving for Ux, Initial residual = 0.000533067, Final residual = 5.07063e-05, No Iterations 7
smoothSolver:  Solving for Uy, Initial residual = 0.0114854, Final residual = 0.000849854, No Iterations 7
smoothSolver:  Solving for Uz, Initial residual = 0.0108125, Final residual = 0.000814075, No Iterations 7
GAMG:  Solving for p, Initial residual = 0.00492675, Final residual = 2.3073e-05, No Iterations 4
time step continuity errors : sum local = 4.34381e-05, global = 1.54598e-07, cumulative = 0.000184235
smoothSolver:  Solving for omega, Initial residual = 8.74704e-05, Final residual = 6.50815e-06, No Iterations 3
smoothSolver:  Solving for k, Initial residual = 0.00128154, Final residual = 0.0001221, No Iterations 3
ExecutionTime = 30.23 s  ClockTime = 30 s

forceCoeffs forceCoeffs1 write:
    Cm    = 0.160593
    Cd    = 0.414875
    Cl    = 0.0700283
    Cl(f) = 0.195607
    Cl(r) = -0.125579

Time = 61

smoothSolver:  Solving for Ux, Initial residual = 0.00051917, Final residual = 4.97232e-05, No Iterations 7
smoothSolver:  Solving for Uy, Initial residual = 0.0113296, Final residual = 0.000838537, No Iterations 7
smoothSolver:  Solving for Uz, Initial residual = 0.0106133, Final residual = 0.000786974, No Iterations 7
GAMG:  Solving for p, Initial residual = 0.00482526, Final residual = 2.31291e-05, No Iterations 4
time step continuity errors : sum local = 4.35698e-05, global = 3.3973e-07, cumulative = 0.000184575
smoothSolver:  Solving for omega, Initial residual = 8.57334e-05, Final residual = 6.31845e-06, No Iterations 3
smoothSolver:  Solving for k, Initial residual = 0.00124752, Final residual = 0.0001175, No Iterations 3
ExecutionTime = 30.68 s  ClockTime = 30 s

forceCoeffs forceCoeffs1 write:
    Cm    = 0.160327
    Cd    = 0.414845
    Cl    = 0.070043
    Cl(f) = 0.195349
    Cl(r) = -0.125306

Time = 62

smoothSolver:  Solving for Ux, Initial residual = 0.000506285, Final residual = 4.91889e-05, No Iterations 7
smoothSolver:  Solving for Uy, Initial residual = 0.0111779, Final residual = 0.000829963, No Iterations 7
smoothSolver:  Solving for Uz, Initial residual = 0.0104332, Final residual = 0.00103904, No Iterations 6
GAMG:  Solving for p, Initial residual = 0.00471787, Final residual = 2.24515e-05, No Iterations 4
time step continuity errors : sum local = 4.23257e-05, global = 5.46306e-07, cumulative = 0.000185121
smoothSolver:  Solving for omega, Initial residual = 8.41211e-05, Final residual = 6.13112e-06, No Iterations 3
smoothSolver:  Solving for k, Initial residual = 0.0012183, Final residual = 0.000113377, No Iterations 3
ExecutionTime = 31.13 s  ClockTime = 31 s

forceCoeffs forceCoeffs1 write:
    Cm    = 0.160074
    Cd    = 0.414762
    Cl    = 0.0700244
    Cl(f) = 0.195087
    Cl(r) = -0.125062

Time = 63

smoothSolver:  Solving for Ux, Initial residual = 0.000495599, Final residual = 4.87279e-05, No Iterations 7
smoothSolver:  Solving for Uy, Initial residual = 0.0110257, Final residual = 0.000821633, No Iterations 7
smoothSolver:  Solving for Uz, Initial residual = 0.010276, Final residual = 0.00102463, No Iterations 6
GAMG:  Solving for p, Initial residual = 0.00462574, Final residual = 2.20575e-05, No Iterations 4
time step continuity errors : sum local = 4.16145e-05, global = 5.94159e-07, cumulative = 0.000185715
smoothSolver:  Solving for omega, Initial residual = 8.25283e-05, Final residual = 5.95867e-06, No Iterations 3
smoothSolver:  Solving for k, Initial residual = 0.00118986, Final residual = 0.000109742, No Iterations 3
ExecutionTime = 31.59 s  ClockTime = 31 s

forceCoeffs forceCoeffs1 write:
    Cm    = 0.159869
    Cd    = 0.414724
    Cl    = 0.0700319
    Cl(f) = 0.194885
    Cl(r) = -0.124853

Time = 64

smoothSolver:  Solving for Ux, Initial residual = 0.000486714, Final residual = 4.8099e-05, No Iterations 7
smoothSolver:  Solving for Uy, Initial residual = 0.010886, Final residual = 0.000815448, No Iterations 7
smoothSolver:  Solving for Uz, Initial residual = 0.0101143, Final residual = 0.00100956, No Iterations 6
GAMG:  Solving for p, Initial residual = 0.00453327, Final residual = 2.1408e-05, No Iterations 4
time step continuity errors : sum local = 4.04151e-05, global = 5.47013e-07, cumulative = 0.000186262
smoothSolver:  Solving for omega, Initial residual = 8.09125e-05, Final residual = 5.79434e-06, No Iterations 3
smoothSolver:  Solving for k, Initial residual = 0.00116204, Final residual = 0.000106441, No Iterations 3
ExecutionTime = 32.05 s  ClockTime = 32 s

forceCoeffs forceCoeffs1 write:
    Cm    = 0.15976
    Cd    = 0.414793
    Cl    = 0.0700645
    Cl(f) = 0.194792
    Cl(r) = -0.124728

Time = 65

smoothSolver:  Solving for Ux, Initial residual = 0.000478194, Final residual = 4.74189e-05, No Iterations 7
smoothSolver:  Solving for Uy, Initial residual = 0.0107182, Final residual = 0.000813176, No Iterations 7
smoothSolver:  Solving for Uz, Initial residual = 0.00992066, Final residual = 0.00073792, No Iterations 7
GAMG:  Solving for p, Initial residual = 0.00444005, Final residual = 2.10253e-05, No Iterations 4
time step continuity errors : sum local = 3.9713e-05, global = 4.47052e-07, cumulative = 0.000186709
smoothSolver:  Solving for omega, Initial residual = 7.9689e-05, Final residual = 5.67479e-06, No Iterations 3
smoothSolver:  Solving for k, Initial residual = 0.00113399, Final residual = 0.000103282, No Iterations 3
ExecutionTime = 32.51 s  ClockTime = 32 s

forceCoeffs forceCoeffs1 write:
    Cm    = 0.15973
    Cd    = 0.414989
    Cl    = 0.0701001
    Cl(f) = 0.19478
    Cl(r) = -0.12468

Time = 66

smoothSolver:  Solving for Ux, Initial residual = 0.000472242, Final residual = 4.68999e-05, No Iterations 7
smoothSolver:  Solving for Uy, Initial residual = 0.0105341, Final residual = 0.000817724, No Iterations 7
smoothSolver:  Solving for Uz, Initial residual = 0.00971305, Final residual = 0.000733268, No Iterations 7
GAMG:  Solving for p, Initial residual = 0.00433837, Final residual = 2.0076e-05, No Iterations 4
time step continuity errors : sum local = 3.79327e-05, global = 3.15989e-07, cumulative = 0.000187025
smoothSolver:  Solving for omega, Initial residual = 7.89151e-05, Final residual = 5.59565e-06, No Iterations 3
smoothSolver:  Solving for k, Initial residual = 0.0011039, Final residual = 0.000100139, No Iterations 3
ExecutionTime = 32.98 s  ClockTime = 33 s

forceCoeffs forceCoeffs1 write:
    Cm    = 0.159756
    Cd    = 0.415259
    Cl    = 0.0701858
    Cl(f) = 0.194849
    Cl(r) = -0.124663

Time = 67

smoothSolver:  Solving for Ux, Initial residual = 0.000464676, Final residual = 4.64172e-05, No Iterations 7
smoothSolver:  Solving for Uy, Initial residual = 0.0103578, Final residual = 0.000822345, No Iterations 7
smoothSolver:  Solving for Uz, Initial residual = 0.00952766, Final residual = 0.00073837, No Iterations 7
GAMG:  Solving for p, Initial residual = 0.00424254, Final residual = 1.94768e-05, No Iterations 4
time step continuity errors : sum local = 3.68126e-05, global = 3.35966e-07, cumulative = 0.000187361
smoothSolver:  Solving for omega, Initial residual = 7.80198e-05, Final residual = 5.54241e-06, No Iterations 3
smoothSolver:  Solving for k, Initial residual = 0.00107132, Final residual = 9.73133e-05, No Iterations 3
ExecutionTime = 33.45 s  ClockTime = 33 s

forceCoeffs forceCoeffs1 write:
    Cm    = 0.159766
    Cd    = 0.415517
    Cl    = 0.0702992
    Cl(f) = 0.194916
    Cl(r) = -0.124617

Time = 68

smoothSolver:  Solving for Ux, Initial residual = 0.000457686, Final residual = 3.48075e-05, No Iterations 8
smoothSolver:  Solving for Uy, Initial residual = 0.0102085, Final residual = 0.000824937, No Iterations 7
smoothSolver:  Solving for Uz, Initial residual = 0.00936461, Final residual = 0.000744598, No Iterations 7
GAMG:  Solving for p, Initial residual = 0.00416688, Final residual = 1.92072e-05, No Iterations 4
time step continuity errors : sum local = 3.63208e-05, global = 3.3756e-07, cumulative = 0.000187699
smoothSolver:  Solving for omega, Initial residual = 7.76199e-05, Final residual = 5.49406e-06, No Iterations 3
smoothSolver:  Solving for k, Initial residual = 0.00104161, Final residual = 9.45475e-05, No Iterations 3
ExecutionTime = 33.91 s  ClockTime = 34 s

forceCoeffs forceCoeffs1 write:
    Cm    = 0.159704
    Cd    = 0.415692
    Cl    = 0.0703977
    Cl(f) = 0.194903
    Cl(r) = -0.124506

Time = 69

smoothSolver:  Solving for Ux, Initial residual = 0.000449251, Final residual = 3.43578e-05, No Iterations 8
smoothSolver:  Solving for Uy, Initial residual = 0.010077, Final residual = 0.000823735, No Iterations 7
smoothSolver:  Solving for Uz, Initial residual = 0.00924838, Final residual = 0.000748999, No Iterations 7
GAMG:  Solving for p, Initial residual = 0.00411749, Final residual = 1.90204e-05, No Iterations 4
time step continuity errors : sum local = 3.59954e-05, global = 3.98591e-07, cumulative = 0.000188098
smoothSolver:  Solving for omega, Initial residual = 7.68412e-05, Final residual = 5.42299e-06, No Iterations 3
smoothSolver:  Solving for k, Initial residual = 0.00101017, Final residual = 9.17619e-05, No Iterations 3
ExecutionTime = 34.37 s  ClockTime = 34 s

forceCoeffs forceCoeffs1 write:
    Cm    = 0.159541
    Cd    = 0.415771
    Cl    = 0.0704261
    Cl(f) = 0.194754
    Cl(r) = -0.124328

Time = 70

smoothSolver:  Solving for Ux, Initial residual = 0.00044095, Final residual = 3.36983e-05, No Iterations 8
smoothSolver:  Solving for Uy, Initial residual = 0.00994563, Final residual = 0.000812661, No Iterations 7
smoothSolver:  Solving for Uz, Initial residual = 0.00912591, Final residual = 0.000746932, No Iterations 7
GAMG:  Solving for p, Initial residual = 0.00407665, Final residual = 1.86901e-05, No Iterations 4
time step continuity errors : sum local = 3.5408e-05, global = 3.01902e-07, cumulative = 0.000188399
smoothSolver:  Solving for omega, Initial residual = 7.60795e-05, Final residual = 5.3546e-06, No Iterations 3
smoothSolver:  Solving for k, Initial residual = 0.000980107, Final residual = 8.89819e-05, No Iterations 3
ExecutionTime = 34.84 s  ClockTime = 35 s

forceCoeffs forceCoeffs1 write:
    Cm    = 0.159273
    Cd    = 0.41572
    Cl    = 0.0704054
    Cl(f) = 0.194476
    Cl(r) = -0.124071

Time = 71

smoothSolver:  Solving for Ux, Initial residual = 0.000431183, Final residual = 3.27967e-05, No Iterations 8
smoothSolver:  Solving for Uy, Initial residual = 0.00978251, Final residual = 0.000788481, No Iterations 7
smoothSolver:  Solving for Uz, Initial residual = 0.00897219, Final residual = 0.000734288, No Iterations 7
GAMG:  Solving for p, Initial residual = 0.00402915, Final residual = 1.85951e-05, No Iterations 4
time step continuity errors : sum local = 3.52657e-05, global = 2.51724e-07, cumulative = 0.000188651
smoothSolver:  Solving for omega, Initial residual = 7.5699e-05, Final residual = 5.29089e-06, No Iterations 3
smoothSolver:  Solving for k, Initial residual = 0.00095088, Final residual = 8.61964e-05, No Iterations 3
ExecutionTime = 35.3 s  ClockTime = 35 s

forceCoeffs forceCoeffs1 write:
    Cm    = 0.158953
    Cd    = 0.415587
    Cl    = 0.070341
    Cl(f) = 0.194123
    Cl(r) = -0.123782

Time = 72

smoothSolver:  Solving for Ux, Initial residual = 0.000420091, Final residual = 4.19022e-05, No Iterations 7
smoothSolver:  Solving for Uy, Initial residual = 0.00959096, Final residual = 0.000757432, No Iterations 7
smoothSolver:  Solving for Uz, Initial residual = 0.00879714, Final residual = 0.000712766, No Iterations 7
GAMG:  Solving for p, Initial residual = 0.00397765, Final residual = 1.84325e-05, No Iterations 4
time step continuity errors : sum local = 3.49987e-05, global = 2.23131e-07, cumulative = 0.000188874
smoothSolver:  Solving for omega, Initial residual = 7.48009e-05, Final residual = 5.19488e-06, No Iterations 3
smoothSolver:  Solving for k, Initial residual = 0.000919342, Final residual = 8.33287e-05, No Iterations 3
ExecutionTime = 35.77 s  ClockTime = 35 s

forceCoeffs forceCoeffs1 write:
    Cm    = 0.158593
    Cd    = 0.41535
    Cl    = 0.070331
    Cl(f) = 0.193758
    Cl(r) = -0.123427

Time = 73

smoothSolver:  Solving for Ux, Initial residual = 0.000409551, Final residual = 4.03793e-05, No Iterations 7
smoothSolver:  Solving for Uy, Initial residual = 0.00936718, Final residual = 0.000720771, No Iterations 7
smoothSolver:  Solving for Uz, Initial residual = 0.00858444, Final residual = 0.000679919, No Iterations 7
GAMG:  Solving for p, Initial residual = 0.00392997, Final residual = 1.78809e-05, No Iterations 4
time step continuity errors : sum local = 3.3992e-05, global = 4.2163e-07, cumulative = 0.000189296
smoothSolver:  Solving for omega, Initial residual = 7.41083e-05, Final residual = 5.06185e-06, No Iterations 3
smoothSolver:  Solving for k, Initial residual = 0.00088823, Final residual = 8.05745e-05, No Iterations 3
ExecutionTime = 36.23 s  ClockTime = 36 s

forceCoeffs forceCoeffs1 write:
    Cm    = 0.158248
    Cd    = 0.41507
    Cl    = 0.0703698
    Cl(f) = 0.193433
    Cl(r) = -0.123063

Time = 74

smoothSolver:  Solving for Ux, Initial residual = 0.000398612, Final residual = 3.86666e-05, No Iterations 7
smoothSolver:  Solving for Uy, Initial residual = 0.00911612, Final residual = 0.000686982, No Iterations 7
smoothSolver:  Solving for Uz, Initial residual = 0.00837609, Final residual = 0.000640793, No Iterations 7
GAMG:  Solving for p, Initial residual = 0.00389296, Final residual = 1.70135e-05, No Iterations 4
time step continuity errors : sum local = 3.23779e-05, global = 6.02204e-07, cumulative = 0.000189898
smoothSolver:  Solving for omega, Initial residual = 7.28667e-05, Final residual = 4.92517e-06, No Iterations 3
smoothSolver:  Solving for k, Initial residual = 0.000859953, Final residual = 7.78011e-05, No Iterations 3
ExecutionTime = 36.69 s  ClockTime = 36 s

forceCoeffs forceCoeffs1 write:
    Cm    = 0.157916
    Cd    = 0.414711
    Cl    = 0.0704779
    Cl(f) = 0.193155
    Cl(r) = -0.122677

Time = 75

smoothSolver:  Solving for Ux, Initial residual = 0.000387768, Final residual = 3.69973e-05, No Iterations 7
smoothSolver:  Solving for Uy, Initial residual = 0.00890379, Final residual = 0.000656816, No Iterations 7
smoothSolver:  Solving for Uz, Initial residual = 0.00817055, Final residual = 0.000816602, No Iterations 6
GAMG:  Solving for p, Initial residual = 0.00387029, Final residual = 1.58937e-05, No Iterations 4
time step continuity errors : sum local = 3.02783e-05, global = 5.68974e-07, cumulative = 0.000190467
smoothSolver:  Solving for omega, Initial residual = 7.15522e-05, Final residual = 4.78366e-06, No Iterations 3
smoothSolver:  Solving for k, Initial residual = 0.000831972, Final residual = 7.50844e-05, No Iterations 3
ExecutionTime = 37.14 s  ClockTime = 37 s

forceCoeffs forceCoeffs1 write:
    Cm    = 0.15766
    Cd    = 0.414351
    Cl    = 0.0706667
    Cl(f) = 0.192993
    Cl(r) = -0.122326

Time = 76

smoothSolver:  Solving for Ux, Initial residual = 0.000376841, Final residual = 3.53444e-05, No Iterations 7
smoothSolver:  Solving for Uy, Initial residual = 0.00867573, Final residual = 0.000854327, No Iterations 6
smoothSolver:  Solving for Uz, Initial residual = 0.0079935, Final residual = 0.000777013, No Iterations 6
GAMG:  Solving for p, Initial residual = 0.00385533, Final residual = 1.53943e-05, No Iterations 4
time step continuity errors : sum local = 2.9357e-05, global = 3.78727e-07, cumulative = 0.000190846
smoothSolver:  Solving for omega, Initial residual = 7.03151e-05, Final residual = 4.64513e-06, No Iterations 3
smoothSolver:  Solving for k, Initial residual = 0.000805278, Final residual = 7.26274e-05, No Iterations 3
ExecutionTime = 37.6 s  ClockTime = 37 s

forceCoeffs forceCoeffs1 write:
    Cm    = 0.157467
    Cd    = 0.413995
    Cl    = 0.0708567
    Cl(f) = 0.192895
    Cl(r) = -0.122038

Time = 77

smoothSolver:  Solving for Ux, Initial residual = 0.000366803, Final residual = 3.37345e-05, No Iterations 7
smoothSolver:  Solving for Uy, Initial residual = 0.00851326, Final residual = 0.000826967, No Iterations 6
smoothSolver:  Solving for Uz, Initial residual = 0.00783388, Final residual = 0.000741083, No Iterations 6
GAMG:  Solving for p, Initial residual = 0.0038435, Final residual = 1.51881e-05, No Iterations 4
time step continuity errors : sum local = 2.89917e-05, global = 1.84274e-07, cumulative = 0.00019103
smoothSolver:  Solving for omega, Initial residual = 6.92996e-05, Final residual = 4.51938e-06, No Iterations 3
smoothSolver:  Solving for k, Initial residual = 0.000780624, Final residual = 7.03614e-05, No Iterations 3
ExecutionTime = 38.05 s  ClockTime = 38 s

forceCoeffs forceCoeffs1 write:
    Cm    = 0.157388
    Cd    = 0.413741
    Cl    = 0.0709769
    Cl(f) = 0.192876
    Cl(r) = -0.1219

Time = 78

smoothSolver:  Solving for Ux, Initial residual = 0.000357558, Final residual = 3.23121e-05, No Iterations 7
smoothSolver:  Solving for Uy, Initial residual = 0.00835722, Final residual = 0.000805229, No Iterations 6
smoothSolver:  Solving for Uz, Initial residual = 0.00770374, Final residual = 0.000714407, No Iterations 6
GAMG:  Solving for p, Initial residual = 0.00382931, Final residual = 1.52166e-05, No Iterations 4
time step continuity errors : sum local = 2.90727e-05, global = 1.025e-07, cumulative = 0.000191133
smoothSolver:  Solving for omega, Initial residual = 6.8483e-05, Final residual = 4.40046e-06, No Iterations 3
smoothSolver:  Solving for k, Initial residual = 0.000758073, Final residual = 6.81612e-05, No Iterations 3
ExecutionTime = 38.51 s  ClockTime = 38 s

forceCoeffs forceCoeffs1 write:
    Cm    = 0.157396
    Cd    = 0.413588
    Cl    = 0.0710076
    Cl(f) = 0.1929
    Cl(r) = -0.121893

Time = 79

smoothSolver:  Solving for Ux, Initial residual = 0.000349042, Final residual = 3.08963e-05, No Iterations 7
smoothSolver:  Solving for Uy, Initial residual = 0.00825822, Final residual = 0.000786372, No Iterations 6
smoothSolver:  Solving for Uz, Initial residual = 0.00761897, Final residual = 0.000698875, No Iterations 6
GAMG:  Solving for p, Initial residual = 0.00381742, Final residual = 1.53592e-05, No Iterations 4
time step continuity errors : sum local = 2.93708e-05, global = 2.16273e-07, cumulative = 0.000191349
smoothSolver:  Solving for omega, Initial residual = 6.72753e-05, Final residual = 4.26978e-06, No Iterations 3
smoothSolver:  Solving for k, Initial residual = 0.000735693, Final residual = 6.6056e-05, No Iterations 3
ExecutionTime = 38.97 s  ClockTime = 39 s

forceCoeffs forceCoeffs1 write:
    Cm    = 0.157536
    Cd    = 0.413652
    Cl    = 0.070862
    Cl(f) = 0.192967
    Cl(r) = -0.122105

Time = 80

smoothSolver:  Solving for Ux, Initial residual = 0.000342103, Final residual = 2.95578e-05, No Iterations 7
smoothSolver:  Solving for Uy, Initial residual = 0.00818946, Final residual = 0.000771809, No Iterations 6
smoothSolver:  Solving for Uz, Initial residual = 0.00759454, Final residual = 0.000691769, No Iterations 6
GAMG:  Solving for p, Initial residual = 0.00381137, Final residual = 1.55452e-05, No Iterations 4
time step continuity errors : sum local = 2.97484e-05, global = 5.20959e-07, cumulative = 0.00019187
smoothSolver:  Solving for omega, Initial residual = 6.62389e-05, Final residual = 4.14726e-06, No Iterations 3
smoothSolver:  Solving for k, Initial residual = 0.00071508, Final residual = 6.40499e-05, No Iterations 3
ExecutionTime = 39.43 s  ClockTime = 39 s

forceCoeffs forceCoeffs1 write:
    Cm    = 0.157765
    Cd    = 0.413886
    Cl    = 0.0706104
    Cl(f) = 0.19307
    Cl(r) = -0.12246

Time = 81

smoothSolver:  Solving for Ux, Initial residual = 0.000335483, Final residual = 2.84735e-05, No Iterations 7
smoothSolver:  Solving for Uy, Initial residual = 0.00812287, Final residual = 0.000757547, No Iterations 6
smoothSolver:  Solving for Uz, Initial residual = 0.00755536, Final residual = 0.000688521, No Iterations 6
GAMG:  Solving for p, Initial residual = 0.00379652, Final residual = 1.60472e-05, No Iterations 4
time step continuity errors : sum local = 3.07237e-05, global = 7.2365e-07, cumulative = 0.000192593
smoothSolver:  Solving for omega, Initial residual = 6.4916e-05, Final residual = 4.01906e-06, No Iterations 3
smoothSolver:  Solving for k, Initial residual = 0.00069562, Final residual = 6.22314e-05, No Iterations 3
ExecutionTime = 39.9 s  ClockTime = 40 s

forceCoeffs forceCoeffs1 write:
    Cm    = 0.157998
    Cd    = 0.414167
    Cl    = 0.0702046
    Cl(f) = 0.1931
    Cl(r) = -0.122896

Time = 82

smoothSolver:  Solving for Ux, Initial residual = 0.000329174, Final residual = 2.76022e-05, No Iterations 7
smoothSolver:  Solving for Uy, Initial residual = 0.00805178, Final residual = 0.000746566, No Iterations 6
smoothSolver:  Solving for Uz, Initial residual = 0.00753575, Final residual = 0.000689577, No Iterations 6
GAMG:  Solving for p, Initial residual = 0.00377707, Final residual = 1.63603e-05, No Iterations 4
time step continuity errors : sum local = 3.13354e-05, global = 6.06657e-07, cumulative = 0.0001932
smoothSolver:  Solving for omega, Initial residual = 6.36715e-05, Final residual = 3.87245e-06, No Iterations 3
smoothSolver:  Solving for k, Initial residual = 0.000676252, Final residual = 6.04424e-05, No Iterations 3
ExecutionTime = 40.36 s  ClockTime = 40 s

forceCoeffs forceCoeffs1 write:
    Cm    = 0.15821
    Cd    = 0.414458
    Cl    = 0.0697482
    Cl(f) = 0.193084
    Cl(r) = -0.123336

Time = 83

smoothSolver:  Solving for Ux, Initial residual = 0.000323094, Final residual = 2.69001e-05, No Iterations 7
smoothSolver:  Solving for Uy, Initial residual = 0.00800185, Final residual = 0.000738452, No Iterations 6
smoothSolver:  Solving for Uz, Initial residual = 0.00751185, Final residual = 0.000692732, No Iterations 6
GAMG:  Solving for p, Initial residual = 0.00374758, Final residual = 1.65634e-05, No Iterations 4
time step continuity errors : sum local = 3.17374e-05, global = 2.0029e-07, cumulative = 0.0001934
[...]
GAMG:  Solving for p, Initial residual = 0.000639655, Final residual = 2.69458e-06, No Iterations 4
time step continuity errors : sum local = 5.14682e-06, global = -2.61224e-09, cumulative = 0.000198285
smoothSolver:  Solving for omega, Initial residual = 8.8684e-06, Final residual = 4.68527e-07, No Iterations 3
smoothSolver:  Solving for k, Initial residual = 8.59954e-05, Final residual = 6.49053e-06, No Iterations 3
ExecutionTime = 245.07 s  ClockTime = 245 s

forceCoeffs forceCoeffs1 write:
    Cm    = 0.156188
    Cd    = 0.41183
    Cl    = 0.0637345
    Cl(f) = 0.188055
    Cl(r) = -0.12432

Time = 481

smoothSolver:  Solving for Ux, Initial residual = 5.1582e-05, Final residual = 4.34815e-06, No Iterations 7
smoothSolver:  Solving for Uy, Initial residual = 0.0012528, Final residual = 0.000121771, No Iterations 6
smoothSolver:  Solving for Uz, Initial residual = 0.00110326, Final residual = 0.000104949, No Iterations 6
GAMG:  Solving for p, Initial residual = 0.000644974, Final residual = 2.7654e-06, No Iterations 4
time step continuity errors : sum local = 5.2825e-06, global = -2.43638e-08, cumulative = 0.000198261
smoothSolver:  Solving for omega, Initial residual = 9.11525e-06, Final residual = 4.81213e-07, No Iterations 3
smoothSolver:  Solving for k, Initial residual = 8.68237e-05, Final residual = 6.58506e-06, No Iterations 3
ExecutionTime = 245.53 s  ClockTime = 245 s

forceCoeffs forceCoeffs1 write:
    Cm    = 0.156185
    Cd    = 0.411783
    Cl    = 0.0637074
    Cl(f) = 0.188039
    Cl(r) = -0.124331

Time = 482

smoothSolver:  Solving for Ux, Initial residual = 5.19318e-05, Final residual = 4.4318e-06, No Iterations 7
smoothSolver:  Solving for Uy, Initial residual = 0.00126561, Final residual = 0.000124413, No Iterations 6
smoothSolver:  Solving for Uz, Initial residual = 0.00110999, Final residual = 0.000105481, No Iterations 6
GAMG:  Solving for p, Initial residual = 0.000647863, Final residual = 2.76902e-06, No Iterations 4
time step continuity errors : sum local = 5.28957e-06, global = -2.1747e-08, cumulative = 0.000198239
smoothSolver:  Solving for omega, Initial residual = 9.14229e-06, Final residual = 4.84408e-07, No Iterations 3
smoothSolver:  Solving for k, Initial residual = 8.78307e-05, Final residual = 6.68113e-06, No Iterations 3
ExecutionTime = 245.97 s  ClockTime = 246 s

forceCoeffs forceCoeffs1 write:
    Cm    = 0.156144
    Cd    = 0.41168
    Cl    = 0.06364
    Cl(f) = 0.187964
    Cl(r) = -0.124324

Time = 483

smoothSolver:  Solving for Ux, Initial residual = 5.26148e-05, Final residual = 4.55368e-06, No Iterations 7
smoothSolver:  Solving for Uy, Initial residual = 0.001286, Final residual = 0.000127472, No Iterations 6
smoothSolver:  Solving for Uz, Initial residual = 0.00111627, Final residual = 0.000106963, No Iterations 6
GAMG:  Solving for p, Initial residual = 0.000654408, Final residual = 2.79807e-06, No Iterations 4
time step continuity errors : sum local = 5.34545e-06, global = -3.37386e-08, cumulative = 0.000198205
smoothSolver:  Solving for omega, Initial residual = 9.35796e-06, Final residual = 4.92474e-07, No Iterations 3
smoothSolver:  Solving for k, Initial residual = 8.89023e-05, Final residual = 6.79738e-06, No Iterations 3
ExecutionTime = 246.42 s  ClockTime = 246 s

forceCoeffs forceCoeffs1 write:
    Cm    = 0.156159
    Cd    = 0.411651
    Cl    = 0.063646
    Cl(f) = 0.187982
    Cl(r) = -0.124336

Time = 484

smoothSolver:  Solving for Ux, Initial residual = 5.30542e-05, Final residual = 4.65778e-06, No Iterations 7
smoothSolver:  Solving for Uy, Initial residual = 0.00130339, Final residual = 9.58896e-05, No Iterations 7
smoothSolver:  Solving for Uz, Initial residual = 0.00113294, Final residual = 0.000109046, No Iterations 6
GAMG:  Solving for p, Initial residual = 0.000657026, Final residual = 2.822e-06, No Iterations 4
time step continuity errors : sum local = 5.39148e-06, global = -2.0082e-08, cumulative = 0.000198185
smoothSolver:  Solving for omega, Initial residual = 9.29427e-06, Final residual = 4.95395e-07, No Iterations 3
smoothSolver:  Solving for k, Initial residual = 9.03407e-05, Final residual = 6.92805e-06, No Iterations 3
ExecutionTime = 246.87 s  ClockTime = 247 s

forceCoeffs forceCoeffs1 write:
    Cm    = 0.1561
    Cd    = 0.411534
    Cl    = 0.0635715
    Cl(f) = 0.187886
    Cl(r) = -0.124314

Time = 485

smoothSolver:  Solving for Ux, Initial residual = 5.3426e-05, Final residual = 4.752e-06, No Iterations 7
smoothSolver:  Solving for Uy, Initial residual = 0.00130727, Final residual = 9.66704e-05, No Iterations 7
smoothSolver:  Solving for Uz, Initial residual = 0.00113447, Final residual = 0.000110671, No Iterations 6
GAMG:  Solving for p, Initial residual = 0.000663612, Final residual = 2.82655e-06, No Iterations 4
time step continuity errors : sum local = 5.40085e-06, global = -2.50332e-08, cumulative = 0.00019816
smoothSolver:  Solving for omega, Initial residual = 9.37651e-06, Final residual = 4.97299e-07, No Iterations 3
smoothSolver:  Solving for k, Initial residual = 9.17402e-05, Final residual = 7.07443e-06, No Iterations 3
ExecutionTime = 247.33 s  ClockTime = 247 s

forceCoeffs forceCoeffs1 write:
    Cm    = 0.156094
    Cd    = 0.411474
    Cl    = 0.063584
    Cl(f) = 0.187886
    Cl(r) = -0.124302

Time = 486

smoothSolver:  Solving for Ux, Initial residual = 5.40099e-05, Final residual = 4.83392e-06, No Iterations 7
smoothSolver:  Solving for Uy, Initial residual = 0.00131191, Final residual = 9.78991e-05, No Iterations 7
smoothSolver:  Solving for Uz, Initial residual = 0.00114514, Final residual = 0.00011228, No Iterations 6
GAMG:  Solving for p, Initial residual = 0.000668574, Final residual = 2.77342e-06, No Iterations 4
time step continuity errors : sum local = 5.29975e-06, global = -1.8307e-08, cumulative = 0.000198142
smoothSolver:  Solving for omega, Initial residual = 9.41883e-06, Final residual = 5.06286e-07, No Iterations 3
smoothSolver:  Solving for k, Initial residual = 9.33779e-05, Final residual = 7.21854e-06, No Iterations 3
ExecutionTime = 247.78 s  ClockTime = 248 s

forceCoeffs forceCoeffs1 write:
    Cm    = 0.156065
    Cd    = 0.411386
    Cl    = 0.0635493
    Cl(f) = 0.18784
    Cl(r) = -0.12429

Time = 487

smoothSolver:  Solving for Ux, Initial residual = 5.47749e-05, Final residual = 4.85305e-06, No Iterations 7
smoothSolver:  Solving for Uy, Initial residual = 0.0013232, Final residual = 9.85317e-05, No Iterations 7
smoothSolver:  Solving for Uz, Initial residual = 0.00115194, Final residual = 0.000113013, No Iterations 6
GAMG:  Solving for p, Initial residual = 0.000673799, Final residual = 2.7971e-06, No Iterations 4
time step continuity errors : sum local = 5.34549e-06, global = -1.7319e-08, cumulative = 0.000198124
smoothSolver:  Solving for omega, Initial residual = 9.59676e-06, Final residual = 5.14223e-07, No Iterations 3
smoothSolver:  Solving for k, Initial residual = 9.48886e-05, Final residual = 7.36417e-06, No Iterations 3
ExecutionTime = 248.23 s  ClockTime = 248 s

forceCoeffs forceCoeffs1 write:
    Cm    = 0.156084
    Cd    = 0.411367
    Cl    = 0.0635733
    Cl(f) = 0.187871
    Cl(r) = -0.124298

Time = 488

smoothSolver:  Solving for Ux, Initial residual = 5.51265e-05, Final residual = 4.86384e-06, No Iterations 7
smoothSolver:  Solving for Uy, Initial residual = 0.00132497, Final residual = 9.88946e-05, No Iterations 7
smoothSolver:  Solving for Uz, Initial residual = 0.00115837, Final residual = 0.000113781, No Iterations 6
GAMG:  Solving for p, Initial residual = 0.000675142, Final residual = 2.76491e-06, No Iterations 4
time step continuity errors : sum local = 5.28431e-06, global = -1.00247e-08, cumulative = 0.000198114
smoothSolver:  Solving for omega, Initial residual = 9.52782e-06, Final residual = 5.21418e-07, No Iterations 3
smoothSolver:  Solving for k, Initial residual = 9.61963e-05, Final residual = 7.4955e-06, No Iterations 3
ExecutionTime = 248.69 s  ClockTime = 248 s

forceCoeffs forceCoeffs1 write:
    Cm    = 0.15606
    Cd    = 0.411293
    Cl    = 0.063532
    Cl(f) = 0.187826
    Cl(r) = -0.124294

Time = 489

smoothSolver:  Solving for Ux, Initial residual = 5.49835e-05, Final residual = 4.80223e-06, No Iterations 7
smoothSolver:  Solving for Uy, Initial residual = 0.0013213, Final residual = 9.79938e-05, No Iterations 7
smoothSolver:  Solving for Uz, Initial residual = 0.0011553, Final residual = 0.000113405, No Iterations 6
GAMG:  Solving for p, Initial residual = 0.000678086, Final residual = 2.81751e-06, No Iterations 4
time step continuity errors : sum local = 5.38549e-06, global = -2.65564e-08, cumulative = 0.000198088
smoothSolver:  Solving for omega, Initial residual = 9.60903e-06, Final residual = 5.24446e-07, No Iterations 3
smoothSolver:  Solving for k, Initial residual = 9.71817e-05, Final residual = 7.61696e-06, No Iterations 3
ExecutionTime = 249.14 s  ClockTime = 249 s

forceCoeffs forceCoeffs1 write:
    Cm    = 0.156073
    Cd    = 0.411268
    Cl    = 0.0635506
    Cl(f) = 0.187848
    Cl(r) = -0.124297

Time = 490

smoothSolver:  Solving for Ux, Initial residual = 5.45997e-05, Final residual = 4.72848e-06, No Iterations 7
smoothSolver:  Solving for Uy, Initial residual = 0.00131684, Final residual = 9.74048e-05, No Iterations 7
smoothSolver:  Solving for Uz, Initial residual = 0.00115153, Final residual = 0.000112199, No Iterations 6
GAMG:  Solving for p, Initial residual = 0.000677036, Final residual = 2.79597e-06, No Iterations 4
time step continuity errors : sum local = 5.34461e-06, global = -2.19389e-08, cumulative = 0.000198066
smoothSolver:  Solving for omega, Initial residual = 9.55414e-06, Final residual = 5.26281e-07, No Iterations 3
smoothSolver:  Solving for k, Initial residual = 9.79024e-05, Final residual = 7.73163e-06, No Iterations 3
ExecutionTime = 249.59 s  ClockTime = 249 s

forceCoeffs forceCoeffs1 write:
    Cm    = 0.15606
    Cd    = 0.411204
    Cl    = 0.0635352
    Cl(f) = 0.187827
    Cl(r) = -0.124292

Time = 491

smoothSolver:  Solving for Ux, Initial residual = 5.43075e-05, Final residual = 4.63372e-06, No Iterations 7
smoothSolver:  Solving for Uy, Initial residual = 0.0013151, Final residual = 0.00013113, No Iterations 6
smoothSolver:  Solving for Uz, Initial residual = 0.00114237, Final residual = 0.000110933, No Iterations 6
GAMG:  Solving for p, Initial residual = 0.000678103, Final residual = 2.77381e-06, No Iterations 4
time step continuity errors : sum local = 5.30272e-06, global = -3.7345e-08, cumulative = 0.000198028
smoothSolver:  Solving for omega, Initial residual = 9.60383e-06, Final residual = 5.31149e-07, No Iterations 3
smoothSolver:  Solving for k, Initial residual = 9.8324e-05, Final residual = 7.83072e-06, No Iterations 3
ExecutionTime = 250.04 s  ClockTime = 250 s

forceCoeffs forceCoeffs1 write:
    Cm    = 0.156096
    Cd    = 0.411221
    Cl    = 0.0635675
    Cl(f) = 0.18788
    Cl(r) = -0.124312

Time = 492

smoothSolver:  Solving for Ux, Initial residual = 5.37958e-05, Final residual = 4.53111e-06, No Iterations 7
smoothSolver:  Solving for Uy, Initial residual = 0.00130623, Final residual = 0.000129357, No Iterations 6
smoothSolver:  Solving for Uz, Initial residual = 0.00113876, Final residual = 0.000109099, No Iterations 6
GAMG:  Solving for p, Initial residual = 0.000675345, Final residual = 2.70802e-06, No Iterations 4
time step continuity errors : sum local = 5.17719e-06, global = -3.07161e-08, cumulative = 0.000197998
smoothSolver:  Solving for omega, Initial residual = 9.50587e-06, Final residual = 5.31125e-07, No Iterations 3
smoothSolver:  Solving for k, Initial residual = 9.8619e-05, Final residual = 7.91612e-06, No Iterations 3
ExecutionTime = 250.48 s  ClockTime = 250 s

forceCoeffs forceCoeffs1 write:
    Cm    = 0.156089
    Cd    = 0.411183
    Cl    = 0.0635334
    Cl(f) = 0.187856
    Cl(r) = -0.124322

Time = 493

smoothSolver:  Solving for Ux, Initial residual = 5.32471e-05, Final residual = 4.44472e-06, No Iterations 7
smoothSolver:  Solving for Uy, Initial residual = 0.00129785, Final residual = 0.000128032, No Iterations 6
smoothSolver:  Solving for Uz, Initial residual = 0.00112535, Final residual = 0.000107558, No Iterations 6
GAMG:  Solving for p, Initial residual = 0.000675686, Final residual = 2.69688e-06, No Iterations 4
time step continuity errors : sum local = 5.15629e-06, global = -5.19853e-08, cumulative = 0.000197946
smoothSolver:  Solving for omega, Initial residual = 9.56971e-06, Final residual = 5.33772e-07, No Iterations 3
smoothSolver:  Solving for k, Initial residual = 9.87755e-05, Final residual = 7.98928e-06, No Iterations 3
ExecutionTime = 250.95 s  ClockTime = 251 s

forceCoeffs forceCoeffs1 write:
    Cm    = 0.156119
    Cd    = 0.41121
    Cl    = 0.0635343
    Cl(f) = 0.187886
    Cl(r) = -0.124352

Time = 494

smoothSolver:  Solving for Ux, Initial residual = 5.25944e-05, Final residual = 4.34624e-06, No Iterations 7
smoothSolver:  Solving for Uy, Initial residual = 0.00128752, Final residual = 0.000126397, No Iterations 6
smoothSolver:  Solving for Uz, Initial residual = 0.00112227, Final residual = 0.000106184, No Iterations 6
GAMG:  Solving for p, Initial residual = 0.000670598, Final residual = 2.59993e-06, No Iterations 4
time step continuity errors : sum local = 4.97107e-06, global = -5.42278e-08, cumulative = 0.000197892
smoothSolver:  Solving for omega, Initial residual = 9.45058e-06, Final residual = 5.23934e-07, No Iterations 3
smoothSolver:  Solving for k, Initial residual = 9.87345e-05, Final residual = 8.04893e-06, No Iterations 3
ExecutionTime = 251.41 s  ClockTime = 251 s

forceCoeffs forceCoeffs1 write:
    Cm    = 0.15611
    Cd    = 0.41118
    Cl    = 0.0635046
    Cl(f) = 0.187863
    Cl(r) = -0.124358

Time = 495

smoothSolver:  Solving for Ux, Initial residual = 5.16335e-05, Final residual = 4.25235e-06, No Iterations 7
smoothSolver:  Solving for Uy, Initial residual = 0.00126927, Final residual = 0.000124011, No Iterations 6
smoothSolver:  Solving for Uz, Initial residual = 0.00110703, Final residual = 0.000104366, No Iterations 6
GAMG:  Solving for p, Initial residual = 0.000666626, Final residual = 2.52472e-06, No Iterations 4
time step continuity errors : sum local = 4.8275e-06, global = -6.16896e-08, cumulative = 0.00019783
smoothSolver:  Solving for omega, Initial residual = 9.47352e-06, Final residual = 5.31742e-07, No Iterations 3
smoothSolver:  Solving for k, Initial residual = 9.86145e-05, Final residual = 8.10003e-06, No Iterations 3
ExecutionTime = 251.86 s  ClockTime = 252 s

forceCoeffs forceCoeffs1 write:
    Cm    = 0.156152
    Cd    = 0.411227
    Cl    = 0.0635287
    Cl(f) = 0.187916
    Cl(r) = -0.124388

Time = 496

smoothSolver:  Solving for Ux, Initial residual = 5.10803e-05, Final residual = 4.21618e-06, No Iterations 7
smoothSolver:  Solving for Uy, Initial residual = 0.00125235, Final residual = 0.000122503, No Iterations 6
smoothSolver:  Solving for Uz, Initial residual = 0.00109711, Final residual = 0.000103039, No Iterations 6
GAMG:  Solving for p, Initial residual = 0.000663372, Final residual = 2.42157e-06, No Iterations 4
time step continuity errors : sum local = 4.6303e-06, global = -5.96638e-08, cumulative = 0.00019777
smoothSolver:  Solving for omega, Initial residual = 9.25993e-06, Final residual = 5.23526e-07, No Iterations 3
smoothSolver:  Solving for k, Initial residual = 9.84747e-05, Final residual = 8.14881e-06, No Iterations 3
ExecutionTime = 252.31 s  ClockTime = 252 s

forceCoeffs forceCoeffs1 write:
    Cm    = 0.156139
    Cd    = 0.411212
    Cl    = 0.063484
    Cl(f) = 0.187881
    Cl(r) = -0.124397

Time = 497

smoothSolver:  Solving for Ux, Initial residual = 5.04176e-05, Final residual = 4.12621e-06, No Iterations 7
smoothSolver:  Solving for Uy, Initial residual = 0.00124, Final residual = 0.000120382, No Iterations 6
smoothSolver:  Solving for Uz, Initial residual = 0.00108513, Final residual = 0.000101173, No Iterations 6
GAMG:  Solving for p, Initial residual = 0.000658568, Final residual = 2.36574e-06, No Iterations 4
time step continuity errors : sum local = 4.52366e-06, global = -8.82875e-08, cumulative = 0.000197682
smoothSolver:  Solving for omega, Initial residual = 9.26573e-06, Final residual = 5.20793e-07, No Iterations 3
smoothSolver:  Solving for k, Initial residual = 9.82294e-05, Final residual = 8.19854e-06, No Iterations 3
ExecutionTime = 252.75 s  ClockTime = 253 s

forceCoeffs forceCoeffs1 write:
    Cm    = 0.156163
    Cd    = 0.411241
    Cl    = 0.0634949
    Cl(f) = 0.18791
    Cl(r) = -0.124415

Time = 498

smoothSolver:  Solving for Ux, Initial residual = 4.98579e-05, Final residual = 4.10699e-06, No Iterations 7
smoothSolver:  Solving for Uy, Initial residual = 0.00122934, Final residual = 0.000118757, No Iterations 6
smoothSolver:  Solving for Uz, Initial residual = 0.00107686, Final residual = 9.91409e-05, No Iterations 6
GAMG:  Solving for p, Initial residual = 0.000652628, Final residual = 6.41738e-06, No Iterations 3
time step continuity errors : sum local = 1.22706e-05, global = -1.45481e-07, cumulative = 0.000197536
smoothSolver:  Solving for omega, Initial residual = 9.12837e-06, Final residual = 5.18195e-07, No Iterations 3
smoothSolver:  Solving for k, Initial residual = 9.80638e-05, Final residual = 8.24751e-06, No Iterations 3
ExecutionTime = 253.18 s  ClockTime = 253 s

forceCoeffs forceCoeffs1 write:
    Cm    = 0.156145
    Cd    = 0.411214
    Cl    = 0.0634893
    Cl(f) = 0.18789
    Cl(r) = -0.1244

Time = 499

smoothSolver:  Solving for Ux, Initial residual = 4.90622e-05, Final residual = 4.00204e-06, No Iterations 7
smoothSolver:  Solving for Uy, Initial residual = 0.00121214, Final residual = 0.000115248, No Iterations 6
smoothSolver:  Solving for Uz, Initial residual = 0.00105742, Final residual = 9.60223e-05, No Iterations 6
GAMG:  Solving for p, Initial residual = 0.00064579, Final residual = 2.36235e-06, No Iterations 4
time step continuity errors : sum local = 4.517e-06, global = -1.13445e-07, cumulative = 0.000197423
smoothSolver:  Solving for omega, Initial residual = 9.07741e-06, Final residual = 5.13151e-07, No Iterations 3
smoothSolver:  Solving for k, Initial residual = 9.77623e-05, Final residual = 8.28584e-06, No Iterations 3
ExecutionTime = 253.65 s  ClockTime = 253 s

forceCoeffs forceCoeffs1 write:
    Cm    = 0.156181
    Cd    = 0.411254
    Cl    = 0.0635207
    Cl(f) = 0.187941
    Cl(r) = -0.12442

Time = 500

smoothSolver:  Solving for Ux, Initial residual = 4.85083e-05, Final residual = 3.96397e-06, No Iterations 7
smoothSolver:  Solving for Uy, Initial residual = 0.00119177, Final residual = 0.000113208, No Iterations 6
smoothSolver:  Solving for Uz, Initial residual = 0.00104926, Final residual = 9.42641e-05, No Iterations 6
GAMG:  Solving for p, Initial residual = 0.000634942, Final residual = 6.09408e-06, No Iterations 3
time step continuity errors : sum local = 1.16518e-05, global = -1.56977e-07, cumulative = 0.000197266
smoothSolver:  Solving for omega, Initial residual = 8.89897e-06, Final residual = 5.10752e-07, No Iterations 3
smoothSolver:  Solving for k, Initial residual = 9.73128e-05, Final residual = 8.30681e-06, No Iterations 3
ExecutionTime = 254.12 s  ClockTime = 254 s

streamLine streamLines write:
    seeded 20 particles
    Tracks:20
    Total samples:19307
    Writing data to "/home/relay/OpenFOAM/relay-4.1/run/motorBike/processor0/../postProcessing/sets/streamLines/500"
nearWallFields near write:
    Sampling fields to 500
    Writing sampled fields to 500

wallBoundedStreamLine : seeded 19997 particles.
    Tracks:19997
    Total samples:452401
    Writing data to "/home/relay/OpenFOAM/relay-4.1/run/motorBike/processor0/../postProcessing/sets/wallBoundedStreamLines/500"
forceCoeffs forceCoeffs1 write:
    Cm    = 0.156143
    Cd    = 0.4112
    Cl    = 0.0635171
    Cl(f) = 0.187901
    Cl(r) = -0.124384

End

Finalising parallel run
